(PID.TID 0000.0001) 
(PID.TID 0000.0001) // ======================================================
(PID.TID 0000.0001) //                      MITgcm UV
(PID.TID 0000.0001) //                      =========
(PID.TID 0000.0001) // ======================================================
(PID.TID 0000.0001) // execution environment starting up...
(PID.TID 0000.0001) 
(PID.TID 0000.0001) // MITgcmUV version:  checkpoint69c
(PID.TID 0000.0001) // Build user:        tshahriar
(PID.TID 0000.0001) // Build host:        sverdrup.oden.utexas.edu
(PID.TID 0000.0001) // Build date:        Mon Apr 28 02:28:20 PM CDT 2025
(PID.TID 0000.0001) 
(PID.TID 0000.0001) // =======================================================
(PID.TID 0000.0001) // Execution Environment parameter file "eedata"
(PID.TID 0000.0001) // =======================================================
(PID.TID 0000.0001) ># Example "eedata" file
(PID.TID 0000.0001) ># Lines beginning "#" are comments
(PID.TID 0000.0001) >#  nTx      :: No. threads per process in X
(PID.TID 0000.0001) >#  nTy      :: No. threads per process in Y
(PID.TID 0000.0001) ># debugMode :: print debug msg (sequence of S/R calls)
(PID.TID 0000.0001) > &EEPARMS
(PID.TID 0000.0001) > nTx=1,
(PID.TID 0000.0001) > nTy=1,
(PID.TID 0000.0001) > /
(PID.TID 0000.0001) ># Note: Some systems use & as the namelist terminator (as shown here).
(PID.TID 0000.0001) >#       Other systems use a / character.
(PID.TID 0000.0001) 
(PID.TID 0000.0001) // =======================================================
(PID.TID 0000.0001) // Computational Grid Specification ( see files "SIZE.h" )
(PID.TID 0000.0001) //                                  ( and "eedata"       )
(PID.TID 0000.0001) // =======================================================
(PID.TID 0000.0001)      nPx =    1 ; /* No. processes in X */
(PID.TID 0000.0001)      nPy =    1 ; /* No. processes in Y */
(PID.TID 0000.0001)      nSx =    1 ; /* No. tiles in X per process */
(PID.TID 0000.0001)      nSy =    1 ; /* No. tiles in Y per process */
(PID.TID 0000.0001)      sNx =   62 ; /* Tile size in X */
(PID.TID 0000.0001)      sNy =   62 ; /* Tile size in Y */
(PID.TID 0000.0001)      OLx =    4 ; /* Tile overlap distance in X */
(PID.TID 0000.0001)      OLy =    4 ; /* Tile overlap distance in Y */
(PID.TID 0000.0001)      nTx =    1 ; /* No. threads in X per process */
(PID.TID 0000.0001)      nTy =    1 ; /* No. threads in Y per process */
(PID.TID 0000.0001)       Nr =   31 ; /* No. levels in the vertical   */
(PID.TID 0000.0001)       Nx =   62 ; /* Total domain size in X ( = nPx*nSx*sNx ) */
(PID.TID 0000.0001)       Ny =   62 ; /* Total domain size in Y ( = nPy*nSy*sNy ) */
(PID.TID 0000.0001)   nTiles =    1 ; /* Total no. tiles per process ( = nSx*nSy ) */
(PID.TID 0000.0001)   nProcs =    1 ; /* Total no. processes ( = nPx*nPy ) */
(PID.TID 0000.0001) nThreads =    1 ; /* Total no. threads per process ( = nTx*nTy ) */
(PID.TID 0000.0001) usingMPI =    F ; /* Flag used to control whether MPI is in use */
(PID.TID 0000.0001)                   /*  note: To execute a program with MPI calls */
(PID.TID 0000.0001)                   /*  it must be launched appropriately e.g     */
(PID.TID 0000.0001)                   /*  "mpirun -np 64 ......"                    */
(PID.TID 0000.0001) useCoupler=   F ; /* Flag used to control communications with   */
(PID.TID 0000.0001)                   /*  other model components, through a coupler */
(PID.TID 0000.0001) useNest2W_parent =    F ;/* Control 2-W Nesting comm */
(PID.TID 0000.0001) useNest2W_child  =    F ;/* Control 2-W Nesting comm */
(PID.TID 0000.0001) debugMode =    F ; /* print debug msg. (sequence of S/R calls)  */
(PID.TID 0000.0001) printMapIncludesZeros=    F ; /* print zeros in Std.Output maps */
(PID.TID 0000.0001) maxLengthPrt1D=   65 /* maxLength of 1D array printed to StdOut */
(PID.TID 0000.0001) 
(PID.TID 0000.0001) // ======================================================
(PID.TID 0000.0001) // Mapping of tiles to threads
(PID.TID 0000.0001) // ======================================================
(PID.TID 0000.0001) // -o- Thread   1, tiles (   1:   1,   1:   1)
(PID.TID 0000.0001) 
(PID.TID 0000.0001) // ======================================================
(PID.TID 0000.0001) // Tile <-> Tile connectvity table
(PID.TID 0000.0001) // ======================================================
(PID.TID 0000.0001) // Tile number: 000001 (process no. = 000000)
(PID.TID 0000.0001) //        WEST: Tile = 000001, Process = 000000, Comm = put
(PID.TID 0000.0001) //                bi = 000001, bj = 000001
(PID.TID 0000.0001) //        EAST: Tile = 000001, Process = 000000, Comm = put
(PID.TID 0000.0001) //                bi = 000001, bj = 000001
(PID.TID 0000.0001) //       SOUTH: Tile = 000001, Process = 000000, Comm = put
(PID.TID 0000.0001) //                bi = 000001, bj = 000001
(PID.TID 0000.0001) //       NORTH: Tile = 000001, Process = 000000, Comm = put
(PID.TID 0000.0001) //                bi = 000001, bj = 000001
(PID.TID 0000.0001) 
(PID.TID 0000.0001)  INI_PARMS: opening model parameter file "data"
(PID.TID 0000.0001)  OPEN_COPY_DATA_FILE: opening file data
(PID.TID 0000.0001) // =======================================================
(PID.TID 0000.0001) // Parameter file "data"
(PID.TID 0000.0001) // =======================================================
(PID.TID 0000.0001) ># Model parameters
(PID.TID 0000.0001) ># Continuous equation parameters
(PID.TID 0000.0001) > &PARM01
(PID.TID 0000.0001) > tRef=23.,23.,23.,22.,21.,20.,19.,17.,16.,15.,14.,12.,11.,10.,9.,8.,
(PID.TID 0000.0001) >      7.,6.,6.,5.,5.,4.,4.,3.,3.,2.,2.,1.,1.,1.,1.,
(PID.TID 0000.0001) > sRef=31*34.5,
(PID.TID 0000.0001) > no_slip_sides=.TRUE.,
(PID.TID 0000.0001) > no_slip_bottom=.TRUE.,
(PID.TID 0000.0001) > bottomDragQuadratic=0.0021,
(PID.TID 0000.0001) > rhonil=1027.5,
(PID.TID 0000.0001) > rhoConstFresh=999.8,
(PID.TID 0000.0001) > eosType='JMD95Z',
(PID.TID 0000.0001) > hFacMinDr=50.,
(PID.TID 0000.0001) > hFacMin=0.3,
(PID.TID 0000.0001) > hFacInf=0.1,
(PID.TID 0000.0001) > hFacSup=5.,
(PID.TID 0000.0001) > implicitFreeSurface=.TRUE.,
(PID.TID 0000.0001) > implicitDiffusion=.TRUE.,
(PID.TID 0000.0001) > implicitViscosity=.TRUE.,
(PID.TID 0000.0001) > viscC4Leith=2.15,
(PID.TID 0000.0001) > viscC4Leithd=2.15,
(PID.TID 0000.0001) > viscA4GridMax=0.8,
(PID.TID 0000.0001) > useAreaViscLength=.TRUE.,
(PID.TID 0000.0001) > tempAdvScheme=33,
(PID.TID 0000.0001) > saltAdvScheme=33,
(PID.TID 0000.0001) > StaggerTimeStep=.TRUE.,
(PID.TID 0000.0001) > vectorInvariantMomentum=.TRUE.,
(PID.TID 0000.0001) > exactConserv=.TRUE.,
(PID.TID 0000.0001) > debuglevel=0,
(PID.TID 0000.0001) > useSingleCPUio=.TRUE.,
(PID.TID 0000.0001) > tempForcing = .TRUE.,
(PID.TID 0000.0001) > saltForcing = .FALSE.,
(PID.TID 0000.0001) > saltStepping=.TRUE.,
(PID.TID 0000.0001) > /
(PID.TID 0000.0001) >
(PID.TID 0000.0001) ># Elliptic solver parameters
(PID.TID 0000.0001) > &PARM02
(PID.TID 0000.0001) > cg2dTargetResidual=1.E-5,
(PID.TID 0000.0001) > cg2dMaxIters=100,
(PID.TID 0000.0001) > /
(PID.TID 0000.0001) >
(PID.TID 0000.0001) ># Time stepping parameters
(PID.TID 0000.0001) > &PARM03
(PID.TID 0000.0001) > startTime=0.,
(PID.TID 0000.0001) > endTime=18000.,
(PID.TID 0000.0001) > deltaT=1200.,
(PID.TID 0000.0001) > pChkptFreq=622080000.,
(PID.TID 0000.0001) > chkptFreq=155520000.,
(PID.TID 0000.0001) > dumpFreq=0,
(PID.TID 0000.0001) > monitorFreq=1200.,
(PID.TID 0000.0001) > monitorSelect=2,
(PID.TID 0000.0001) > tauThetaClimRelax=2592000.,
(PID.TID 0000.0001) >#-for longer run (100 yrs)
(PID.TID 0000.0001) ># endTime = 3110400000.,
(PID.TID 0000.0001) ># monitorFreq=2592000.,
(PID.TID 0000.0001) > /
(PID.TID 0000.0001) >
(PID.TID 0000.0001) ># Gridding parameters
(PID.TID 0000.0001) > &PARM04
(PID.TID 0000.0001) > usingSphericalPolarGrid=.TRUE.,
(PID.TID 0000.0001) > delX=62*1.,
(PID.TID 0000.0001) > delY=62*1.,
(PID.TID 0000.0001) > xgOrigin=-1.,
(PID.TID 0000.0001) > ygOrigin=14.,
(PID.TID 0000.0001) > delR=10., 11.33, 12.83, 14.53, 16.45, 18.63, 21.1, 23.9, 27.07, 30.65,
(PID.TID 0000.0001) >      34.72, 39.32, 44.53, 50.43, 57.12, 64.69, 73.26, 82.97, 93.97,
(PID.TID 0000.0001) >      106.42, 120.53, 136.5, 154.59, 175.08, 198.29, 224.57, 254.34,
(PID.TID 0000.0001) >      288.05, 326.23, 369.47, 418.43,
(PID.TID 0000.0001) > /
(PID.TID 0000.0001) >
(PID.TID 0000.0001) > &PARM05
(PID.TID 0000.0001) > bathyFile='bathy.bin',
(PID.TID 0000.0001) > zonalWindFile='wind.bin',
(PID.TID 0000.0001) > thetaClimFile='SST_relax.bin',
(PID.TID 0000.0001) > /
(PID.TID 0000.0001) 
(PID.TID 0000.0001)  INI_PARMS ; starts to read PARM01
(PID.TID 0000.0001)  INI_PARMS ; read PARM01 : OK
(PID.TID 0000.0001)  INI_PARMS ; starts to read PARM02
(PID.TID 0000.0001)  INI_PARMS ; read PARM02 : OK
(PID.TID 0000.0001)  INI_PARMS ; starts to read PARM03
(PID.TID 0000.0001)  INI_PARMS ; read PARM03 : OK
(PID.TID 0000.0001)  INI_PARMS ; starts to read PARM04
(PID.TID 0000.0001)  INI_PARMS ; read PARM04 : OK
(PID.TID 0000.0001)  INI_PARMS ; starts to read PARM05
(PID.TID 0000.0001)  INI_PARMS ; read PARM05 : OK
(PID.TID 0000.0001)  INI_PARMS: finished reading file "data"
(PID.TID 0000.0001)  PACKAGES_BOOT: opening data.pkg
(PID.TID 0000.0001)  OPEN_COPY_DATA_FILE: opening file data.pkg
(PID.TID 0000.0001) // =======================================================
(PID.TID 0000.0001) // Parameter file "data.pkg"
(PID.TID 0000.0001) // =======================================================
(PID.TID 0000.0001) ># Packages (lines beginning "#" are comments)
(PID.TID 0000.0001) > &PACKAGES
(PID.TID 0000.0001) > useDiagnostics=.TRUE.,
(PID.TID 0000.0001) > useGMRedi=.TRUE.,
(PID.TID 0000.0001) > useGrdchk=.TRUE.,
(PID.TID 0000.0001) >
(PID.TID 0000.0001) > /
(PID.TID 0000.0001) 
(PID.TID 0000.0001)  PACKAGES_BOOT: finished reading data.pkg
(PID.TID 0000.0001)  PACKAGES_BOOT: On/Off package Summary
 --------  pkgs with a standard "usePKG" On/Off switch in "data.pkg":  --------
 pkg/gmredi               compiled   and   used ( useGMRedi                = T )
 pkg/autodiff             compiled   and   used ( useAUTODIFF              = T )
 pkg/grdchk               compiled   and   used ( useGrdchk                = T )
 pkg/ctrl                 compiled   and   used ( useCTRL                  = T )
 pkg/diagnostics          compiled   and   used ( useDiagnostics           = T )
 -------- pkgs without standard "usePKG" On/Off switch in "data.pkg":  --------
 pkg/generic_advdiff      compiled   and   used ( useGAD                   = T )
 pkg/mom_common           compiled   and   used ( momStepping              = T )
 pkg/mom_vecinv           compiled   and   used ( +vectorInvariantMomentum = T )
 pkg/mom_fluxform         compiled but not used ( & not vectorInvariantMom = F )
 pkg/monitor              compiled   and   used ( monitorFreq > 0.         = T )
 pkg/debug                compiled but not used ( debugMode                = F )
 pkg/rw                   compiled   and   used
 pkg/mdsio                compiled   and   used
 pkg/autodiff             compiled   and   used
 pkg/cost                 compiled   and   used
(PID.TID 0000.0001)  PACKAGES_BOOT: End of package Summary
(PID.TID 0000.0001) 
(PID.TID 0000.0001)  GM_READPARMS: opening data.gmredi
(PID.TID 0000.0001)  OPEN_COPY_DATA_FILE: opening file data.gmredi
(PID.TID 0000.0001) // =======================================================
(PID.TID 0000.0001) // Parameter file "data.gmredi"
(PID.TID 0000.0001) // =======================================================
(PID.TID 0000.0001) ># GM+Redi package parameters:
(PID.TID 0000.0001) >#     GM_Small_Number  :: epsilon used in computing the slope
(PID.TID 0000.0001) >#     GM_slopeSqCutoff :: slope^2 cut-off value
(PID.TID 0000.0001) >
(PID.TID 0000.0001) >#-from MOM :
(PID.TID 0000.0001) ># GM_background_K: 	G & Mc.W  diffusion coefficient
(PID.TID 0000.0001) ># GM_maxSlope    :	max slope of isopycnals
(PID.TID 0000.0001) ># GM_Scrit       :	transition for scaling diffusion coefficient
(PID.TID 0000.0001) ># GM_Sd          :	half width scaling for diffusion coefficient
(PID.TID 0000.0001) ># GM_taper_scheme:	slope clipping or one of the tapering schemes
(PID.TID 0000.0001) ># GM_Kmin_horiz  :	horizontal diffusion minimum value
(PID.TID 0000.0001) >
(PID.TID 0000.0001) >#-Option parameters (needs to "define" options in GMREDI_OPTIONS.h")
(PID.TID 0000.0001) ># GM_isopycK     :	isopycnal diffusion coefficient (default=GM_background_K)
(PID.TID 0000.0001) ># GM_AdvForm     :	turn on GM Advective form       (default=Skew flux form)
(PID.TID 0000.0001) >
(PID.TID 0000.0001) > &GM_PARM01
(PID.TID 0000.0001) >  GM_Small_Number  = 1.D-20,
(PID.TID 0000.0001) >  GM_slopeSqCutoff = 1.D+08,
(PID.TID 0000.0001) >  GM_AdvForm         = .FALSE.,
(PID.TID 0000.0001) >#  GM_isopycK         = 1.1D+3,
(PID.TID 0000.0001) >#  GM_background_K    = 0.9D+3,
(PID.TID 0000.0001) >  GM_background_K    = 1.D+3,
(PID.TID 0000.0001) >  GM_taper_scheme    = 'dm95',
(PID.TID 0000.0001) >  GM_maxSlope        = 1.D-2,
(PID.TID 0000.0001) >  GM_Kmin_horiz      = 50.,
(PID.TID 0000.0001) >  GM_Scrit           = 4.D-3,
(PID.TID 0000.0001) >  GM_Sd              = 1.D-3,
(PID.TID 0000.0001) >#  GM_Visbeck_alpha   = 1.5D-2,
(PID.TID 0000.0001) >  GM_Visbeck_alpha   = 0.,
(PID.TID 0000.0001) >  GM_Visbeck_length  = 2.D+5,
(PID.TID 0000.0001) >  GM_Visbeck_depth   = 1.D+3,
(PID.TID 0000.0001) >  GM_Visbeck_maxval_K= 2.5D+3,
(PID.TID 0000.0001) > /
(PID.TID 0000.0001) >
(PID.TID 0000.0001) >
(PID.TID 0000.0001) 
(PID.TID 0000.0001)  GM_READPARMS: finished reading data.gmredi
(PID.TID 0000.0001) AUTODIFF_READPARMS: opening data.autodiff
(PID.TID 0000.0001)  OPEN_COPY_DATA_FILE: opening file data.autodiff
(PID.TID 0000.0001) // =======================================================
(PID.TID 0000.0001) // Parameter file "data.autodiff"
(PID.TID 0000.0001) // =======================================================
(PID.TID 0000.0001) ># =========================
(PID.TID 0000.0001) ># pkg AUTODIFF parameters :
(PID.TID 0000.0001) ># =========================
(PID.TID 0000.0001) >#  inAdExact :: get an exact adjoint (no approximation) (def=.True.)
(PID.TID 0000.0001) >#
(PID.TID 0000.0001) > &AUTODIFF_PARM01
(PID.TID 0000.0001) ># inAdExact = .FALSE.,
(PID.TID 0000.0001) ># useKPPinAdMode = .FALSE.,
(PID.TID 0000.0001) ># useGMRediInAdMode = .FALSE.,
(PID.TID 0000.0001) > /
(PID.TID 0000.0001) 
(PID.TID 0000.0001) AUTODIFF_READPARMS: finished reading data.autodiff
(PID.TID 0000.0001) // ===================================
(PID.TID 0000.0001) // AUTODIFF parameters :
(PID.TID 0000.0001) // ===================================
(PID.TID 0000.0001) inAdExact = /* get an exact adjoint (no approximation) */
(PID.TID 0000.0001)                   T
(PID.TID 0000.0001)     ;
(PID.TID 0000.0001) useApproxAdvectionInAdMode = /* approximate AD-advection */
(PID.TID 0000.0001)                   F
(PID.TID 0000.0001)     ;
(PID.TID 0000.0001) cg2dFullAdjoint = /* use full hand written cg2d adjoint (no approximation) */
(PID.TID 0000.0001)                   F
(PID.TID 0000.0001)     ;
(PID.TID 0000.0001) useKPPinAdMode = /* use KPP in adjoint mode */
(PID.TID 0000.0001)                   F
(PID.TID 0000.0001)     ;
(PID.TID 0000.0001) useGMRediInAdMode = /* use GMRedi in adjoint mode */
(PID.TID 0000.0001)                   T
(PID.TID 0000.0001)     ;
(PID.TID 0000.0001) useSEAICEinAdMode = /* use SEAICE in adjoint mode */
(PID.TID 0000.0001)                   F
(PID.TID 0000.0001)     ;
(PID.TID 0000.0001) useGGL90inAdMode = /* use GGL90 in adjoint mode */
(PID.TID 0000.0001)                   F
(PID.TID 0000.0001)     ;
(PID.TID 0000.0001) useSALT_PLUMEinAdMode = /* use SALT_PLUME in adjoint mode */
(PID.TID 0000.0001)                   F
(PID.TID 0000.0001)     ;
(PID.TID 0000.0001) dumpAdVarExch = /* control adexch before dumpinp */
(PID.TID 0000.0001)                       2
(PID.TID 0000.0001)     ;
(PID.TID 0000.0001) mon_AdVarExch = /* control adexch before monitor */
(PID.TID 0000.0001)                       2
(PID.TID 0000.0001)     ;
(PID.TID 0000.0001) viscFacInFw = /* viscosity factor for forward model */
(PID.TID 0000.0001)                 1.000000000000000E+00
(PID.TID 0000.0001)     ;
(PID.TID 0000.0001) viscFacInAd = /* viscosity factor for adjoint */
(PID.TID 0000.0001)                 1.000000000000000E+00
(PID.TID 0000.0001)     ;
(PID.TID 0000.0001) SIregFacInAd = /* sea ice factor for adjoint model */
(PID.TID 0000.0001)                 1.234567000000000E+05
(PID.TID 0000.0001)     ;
(PID.TID 0000.0001) SIregFacInFw = /* sea ice factor for forward model */
(PID.TID 0000.0001)                 1.234567000000000E+05
(PID.TID 0000.0001)     ;
(PID.TID 0000.0001) 
(PID.TID 0000.0001) OPTIM_READPARMS: opening data.optim
(PID.TID 0000.0001)  OPEN_COPY_DATA_FILE: opening file data.optim
(PID.TID 0000.0001) // =======================================================
(PID.TID 0000.0001) // Parameter file "data.optim"
(PID.TID 0000.0001) // =======================================================
(PID.TID 0000.0001) >#
(PID.TID 0000.0001) ># ********************************
(PID.TID 0000.0001) ># Off-line optimization parameters
(PID.TID 0000.0001) ># ********************************
(PID.TID 0000.0001) > &OPTIM
(PID.TID 0000.0001) > optimcycle=0,
(PID.TID 0000.0001) > /
(PID.TID 0000.0001) 
(PID.TID 0000.0001) OPTIM_READPARMS: finished reading data.optim
(PID.TID 0000.0001) CTRL_READPARMS: opening data.ctrl
(PID.TID 0000.0001)  OPEN_COPY_DATA_FILE: opening file data.ctrl
(PID.TID 0000.0001) // =======================================================
(PID.TID 0000.0001) // Parameter file "data.ctrl"
(PID.TID 0000.0001) // =======================================================
(PID.TID 0000.0001) ># *********************
(PID.TID 0000.0001) ># ECCO controlvariables
(PID.TID 0000.0001) ># *********************
(PID.TID 0000.0001) > &CTRL_NML
(PID.TID 0000.0001) ># doSinglePrecTapelev=.TRUE.,
(PID.TID 0000.0001) > /
(PID.TID 0000.0001) >#
(PID.TID 0000.0001) ># *********************
(PID.TID 0000.0001) ># names for ctrl_pack/unpack
(PID.TID 0000.0001) ># *********************
(PID.TID 0000.0001) > &CTRL_PACKNAMES
(PID.TID 0000.0001) > /
(PID.TID 0000.0001) >#
(PID.TID 0000.0001) ># *********************
(PID.TID 0000.0001) ># names for CTRL_GENARR, CTRL_GENTIM
(PID.TID 0000.0001) ># *********************
(PID.TID 0000.0001) > &CTRL_NML_GENARR
(PID.TID 0000.0001) > xx_genarr3d_file(1)       = 'xx_theta',
(PID.TID 0000.0001) > xx_genarr3d_weight(1)     = 'ones_64b.bin',
(PID.TID 0000.0001) > xx_genarr3d_bounds(1:5,1) = 1.,62.,40.,40.,21.,
(PID.TID 0000.0001) >#
(PID.TID 0000.0001) > xx_genarr3d_file(2)       = 'xx_salt',
(PID.TID 0000.0001) > xx_genarr3d_weight(2)     = 'ones_64b.bin',
(PID.TID 0000.0001) > xx_genarr3d_bounds(1:5,2) = 1.,62.,40.,40.,21.,
(PID.TID 0000.0001) >#
(PID.TID 0000.0001) > /
(PID.TID 0000.0001) 
(PID.TID 0000.0001) CTRL_READPARMS: finished reading data.ctrl
(PID.TID 0000.0001) read-write ctrl files from current run directory
(PID.TID 0000.0001) COST_READPARMS: opening data.cost
(PID.TID 0000.0001)  OPEN_COPY_DATA_FILE: opening file data.cost
(PID.TID 0000.0001) // =======================================================
(PID.TID 0000.0001) // Parameter file "data.cost"
(PID.TID 0000.0001) // =======================================================
(PID.TID 0000.0001) >#
(PID.TID 0000.0001) >#
(PID.TID 0000.0001) ># ******************
(PID.TID 0000.0001) ># cost function
(PID.TID 0000.0001) ># ******************
(PID.TID 0000.0001) > &COST_NML
(PID.TID 0000.0001) >  mult_test = 1.,
(PID.TID 0000.0001) > /
(PID.TID 0000.0001) 
(PID.TID 0000.0001) COST_READPARMS: finished reading data.cost
(PID.TID 0000.0001) // =======================================================
(PID.TID 0000.0001) // cost configuration  >>> START <<<
(PID.TID 0000.0001) // =======================================================
(PID.TID 0000.0001) lastinterval =   /* cost interval over which to average ( s ). */
(PID.TID 0000.0001)                 2.592000000000000E+06
(PID.TID 0000.0001)     ;
(PID.TID 0000.0001) cost_mask_file = /* file name of cost mask file */
(PID.TID 0000.0001)               ''
(PID.TID 0000.0001)     ;
(PID.TID 0000.0001) // =======================================================
(PID.TID 0000.0001) // cost configuration  >>> END <<<
(PID.TID 0000.0001) // =======================================================
(PID.TID 0000.0001) 
(PID.TID 0000.0001) GRDCHK_READPARMS: opening data.grdchk
(PID.TID 0000.0001)  OPEN_COPY_DATA_FILE: opening file data.grdchk
(PID.TID 0000.0001) // =======================================================
(PID.TID 0000.0001) // Parameter file "data.grdchk"
(PID.TID 0000.0001) // =======================================================
(PID.TID 0000.0001) >
(PID.TID 0000.0001) ># *******************
(PID.TID 0000.0001) ># ECCO gradient check
(PID.TID 0000.0001) ># *******************
(PID.TID 0000.0001) > &GRDCHK_NML
(PID.TID 0000.0001) > grdchk_eps       = 1.d-5,
(PID.TID 0000.0001) ># nbeg             = 4,
(PID.TID 0000.0001) > iGloPos          = 4,
(PID.TID 0000.0001) > jGloPos          = 8,
(PID.TID 0000.0001) > kGloPos          = 1,
(PID.TID 0000.0001) > nstep            = 1,
(PID.TID 0000.0001) > nend             = 4,
(PID.TID 0000.0001) > grdchkvarname    = "xx_theta",
(PID.TID 0000.0001) > /
(PID.TID 0000.0001) 
(PID.TID 0000.0001) GRDCHK_READPARMS: finished reading data.grdchk
(PID.TID 0000.0001)  DIAGNOSTICS_READPARMS: opening data.diagnostics
(PID.TID 0000.0001)  OPEN_COPY_DATA_FILE: opening file data.diagnostics
(PID.TID 0000.0001) // =======================================================
(PID.TID 0000.0001) // Parameter file "data.diagnostics"
(PID.TID 0000.0001) // =======================================================
(PID.TID 0000.0001) ># Diagnostic Package Choices
(PID.TID 0000.0001) >#--------------------
(PID.TID 0000.0001) >#  dumpAtLast (logical): always write output at the end of simulation (default=F)
(PID.TID 0000.0001) >#  diag_mnc   (logical): write to NetCDF files (default=useMNC)
(PID.TID 0000.0001) >#--for each output-stream:
(PID.TID 0000.0001) >#  fileName(n) : prefix of the output file name (max 80c long) for outp.stream n
(PID.TID 0000.0001) >#  frequency(n):< 0 : write snap-shot output every |frequency| seconds
(PID.TID 0000.0001) >#               > 0 : write time-average output every frequency seconds
(PID.TID 0000.0001) >#  timePhase(n)     : write at time = timePhase + multiple of |frequency|
(PID.TID 0000.0001) >#    averagingFreq  : frequency (in s) for periodic averaging interval
(PID.TID 0000.0001) >#    averagingPhase : phase     (in s) for periodic averaging interval
(PID.TID 0000.0001) >#    repeatCycle    : number of averaging intervals in 1 cycle
(PID.TID 0000.0001) >#  levels(:,n) : list of levels to write to file (Notes: declared as REAL)
(PID.TID 0000.0001) >#                when this entry is missing, select all common levels of this list
(PID.TID 0000.0001) >#  fields(:,n) : list of selected diagnostics fields (8.c) in outp.stream n
(PID.TID 0000.0001) >#                (see "available_diagnostics.log" file for the full list of diags)
(PID.TID 0000.0001) >#  missing_value(n) : missing value for real-type fields in output file "n"
(PID.TID 0000.0001) >#  fileFlags(n)     : specific code (8c string) for output file "n"
(PID.TID 0000.0001) >#--------------------
(PID.TID 0000.0001) > &DIAGNOSTICS_LIST
(PID.TID 0000.0001) >  fields(1:3,1)  = 'ETAN    ','TRELAX  ','MXLDEPTH',
(PID.TID 0000.0001) >  fileName(1) = 'surfDiag',
(PID.TID 0000.0001) >  frequency(1) = 432000.,
(PID.TID 0000.0001) >
(PID.TID 0000.0001) >  fields(1:12,2)  = 'THETA   ','PHIHYD  ',
(PID.TID 0000.0001) >                   'UVEL    ','VVEL    ','WVEL    ',
(PID.TID 0000.0001) >                   'THETASQ', 'UVELSQ', 'VVELSQ', 'WVELSQ',
(PID.TID 0000.0001) >                   'PhiVEL', 'PsiVEL', 'momKE'
(PID.TID 0000.0001) ># did not specify levels => all levels are selected
(PID.TID 0000.0001) >   fileName(2) = 'dynDiag',
(PID.TID 0000.0001) >  frequency(2) = 432000.,
(PID.TID 0000.0001) > /
(PID.TID 0000.0001) >
(PID.TID 0000.0001) >#---------------------------------------
(PID.TID 0000.0001) >#- Eddy-permitting run, diagnose vorticity (not computed when using uniform Ah)
(PID.TID 0000.0001) ># fields(1:2,3) = 'momVort3', 'momHDiv ',
(PID.TID 0000.0001) ># frequency(3) = 86400.,
(PID.TID 0000.0001) ># filename(3) = 'state_vort',
(PID.TID 0000.0001) ># &
(PID.TID 0000.0001) >
(PID.TID 0000.0001) ># GM diagnostics
(PID.TID 0000.0001) >#- Note: comment out this diagnostics list below if useGMRedi=.FALSE.
(PID.TID 0000.0001) >#        or you will get warnings messages in STDERR
(PID.TID 0000.0001) >  fields(1:2,3) = 'GM_PsiX ', 'GM_PsiY ',
(PID.TID 0000.0001) >  frequency(3) = 432000.,
(PID.TID 0000.0001) >  filename(3) = 'GM_diags',
(PID.TID 0000.0001) >
(PID.TID 0000.0001) >
(PID.TID 0000.0001) ># Parameter for Diagnostics of per level statistics:
(PID.TID 0000.0001) >#--------------------
(PID.TID 0000.0001) >#  diagSt_mnc (logical): write stat-diags to NetCDF files (default=diag_mnc)
(PID.TID 0000.0001) >#  diagSt_regMaskFile : file containing the region-mask to read-in
(PID.TID 0000.0001) >#  nSetRegMskFile   : number of region-mask sets within the region-mask file
(PID.TID 0000.0001) >#  set_regMask(i)   : region-mask set-index that identifies the region "i"
(PID.TID 0000.0001) >#  val_regMask(i)   : region "i" identifier value in the region mask
(PID.TID 0000.0001) >#--for each output-stream:
(PID.TID 0000.0001) >#  stat_fName(n) : prefix of the output file name (max 80c long) for outp.stream n
(PID.TID 0000.0001) >#  stat_freq(n):< 0 : write snap-shot output every |stat_freq| seconds
(PID.TID 0000.0001) >#               > 0 : write time-average output every stat_freq seconds
(PID.TID 0000.0001) >#  stat_phase(n)    : write at time = stat_phase + multiple of |stat_freq|
(PID.TID 0000.0001) >#  stat_region(:,n) : list of "regions" (default: 1 region only=global)
(PID.TID 0000.0001) >#  stat_fields(:,n) : list of selected diagnostics fields (8.c) in outp.stream n
(PID.TID 0000.0001) >#                (see "available_diagnostics.log" file for the full list of diags)
(PID.TID 0000.0001) >#--------------------
(PID.TID 0000.0001) > &DIAG_STATIS_PARMS
(PID.TID 0000.0001) >  stat_fields(1:2,1) = 'THETA   ','TRELAX  ',
(PID.TID 0000.0001) >  stat_fName(1) = 'dynStDiag',
(PID.TID 0000.0001) >  stat_freq(1) = 432000.,
(PID.TID 0000.0001) > /
(PID.TID 0000.0001) 
(PID.TID 0000.0001) S/R DIAGNOSTICS_READPARMS, read namelist "diagnostics_list": start
(PID.TID 0000.0001) S/R DIAGNOSTICS_READPARMS, read namelist "diagnostics_list": OK
(PID.TID 0000.0001) S/R DIAGNOSTICS_READPARMS, read namelist "DIAG_STATIS_PARMS": start
(PID.TID 0000.0001) S/R DIAGNOSTICS_READPARMS, read namelist "DIAG_STATIS_PARMS": OK
(PID.TID 0000.0001) -----------------------------------------------------
(PID.TID 0000.0001)  DIAGNOSTICS_READPARMS: global parameter summary:
(PID.TID 0000.0001)  diag_dBugLevel = /* level of printed debug messages */
(PID.TID 0000.0001)                       0
(PID.TID 0000.0001)     ;
(PID.TID 0000.0001)  dumpAtLast = /* always write time-ave diags at the end */
(PID.TID 0000.0001)                   F
(PID.TID 0000.0001)     ;
(PID.TID 0000.0001)  diag_mnc =   /* write NetCDF output files */
(PID.TID 0000.0001)                   F
(PID.TID 0000.0001)     ;
(PID.TID 0000.0001)  useMissingValue = /* put MissingValue where mask = 0 */
(PID.TID 0000.0001)                   F
(PID.TID 0000.0001)     ;
(PID.TID 0000.0001)  diagCG_maxIters = /* max number of iters in diag_cg2d */
(PID.TID 0000.0001)                     100
(PID.TID 0000.0001)     ;
(PID.TID 0000.0001)  diagCG_resTarget = /* residual target for diag_cg2d */
(PID.TID 0000.0001)                 1.000000000000000E-05
(PID.TID 0000.0001)     ;
(PID.TID 0000.0001)  diagCG_pcOffDFac = /* preconditioner off-diagonal factor */
(PID.TID 0000.0001)                 9.611687812379854E-01
(PID.TID 0000.0001)     ;
(PID.TID 0000.0001) -----------------------------------------------------
(PID.TID 0000.0001)  DIAGNOSTICS_READPARMS: active diagnostics summary:
(PID.TID 0000.0001) -----------------------------------------------------
(PID.TID 0000.0001) Creating Output Stream: surfDiag
(PID.TID 0000.0001) Output Frequency:     432000.000000 ; Phase:           0.000000
(PID.TID 0000.0001)  Averaging Freq.:     432000.000000 , Phase:           0.000000 , Cycle:   1
(PID.TID 0000.0001)  missing value: -9.990000000000E+02
(PID.TID 0000.0001)  Levels:    will be set later
(PID.TID 0000.0001)  Fields:    ETAN     TRELAX   MXLDEPTH
(PID.TID 0000.0001) Creating Output Stream: dynDiag
(PID.TID 0000.0001) Output Frequency:     432000.000000 ; Phase:           0.000000
(PID.TID 0000.0001)  Averaging Freq.:     432000.000000 , Phase:           0.000000 , Cycle:   1
(PID.TID 0000.0001)  missing value: -9.990000000000E+02
(PID.TID 0000.0001)  Levels:    will be set later
(PID.TID 0000.0001)  Fields:    THETA    PHIHYD   UVEL     VVEL     WVEL     THETASQ  UVELSQ   VVELSQ   WVELSQ   PhiVEL
(PID.TID 0000.0001)  Fields:    PsiVEL   momKE
(PID.TID 0000.0001) -----------------------------------------------------
(PID.TID 0000.0001)  DIAGNOSTICS_READPARMS: statistics diags. summary:
(PID.TID 0000.0001) Creating Stats. Output Stream: dynStDiag
(PID.TID 0000.0001) Output Frequency:     432000.000000 ; Phase:           0.000000
(PID.TID 0000.0001)  Regions:   0
(PID.TID 0000.0001)  Fields:    THETA    TRELAX
(PID.TID 0000.0001) -----------------------------------------------------
(PID.TID 0000.0001) 
(PID.TID 0000.0001) SET_PARMS: done
(PID.TID 0000.0001) Enter INI_VERTICAL_GRID: setInterFDr=    T ; setCenterDr=    F
(PID.TID 0000.0001) %MON XC_max                       =   6.0500000000000E+01
(PID.TID 0000.0001) %MON XC_min                       =  -5.0000000000000E-01
(PID.TID 0000.0001) %MON XC_mean                      =   3.0000000000000E+01
(PID.TID 0000.0001) %MON XC_sd                        =   1.7895530168173E+01
(PID.TID 0000.0001) %MON XG_max                       =   6.0000000000000E+01
(PID.TID 0000.0001) %MON XG_min                       =  -1.0000000000000E+00
(PID.TID 0000.0001) %MON XG_mean                      =   2.9500000000000E+01
(PID.TID 0000.0001) %MON XG_sd                        =   1.7895530168173E+01
(PID.TID 0000.0001) %MON DXC_max                      =   1.0763620848898E+05
(PID.TID 0000.0001) %MON DXC_min                      =   2.7836616228646E+04
(PID.TID 0000.0001) %MON DXC_mean                     =   7.4835486957243E+04
(PID.TID 0000.0001) %MON DXC_sd                       =   2.4080389995677E+04
(PID.TID 0000.0001) %MON DXF_max                      =   1.0763620848898E+05
(PID.TID 0000.0001) %MON DXF_min                      =   2.7836616228646E+04
(PID.TID 0000.0001) %MON DXF_mean                     =   7.4835486957243E+04
(PID.TID 0000.0001) %MON DXF_sd                       =   2.4080389995677E+04
(PID.TID 0000.0001) %MON DXG_max                      =   1.0787502725165E+05
(PID.TID 0000.0001) %MON DXG_min                      =   2.8774847489886E+04
(PID.TID 0000.0001) %MON DXG_mean                     =   7.5485691984677E+04
(PID.TID 0000.0001) %MON DXG_sd                       =   2.3877575243700E+04
(PID.TID 0000.0001) %MON DXV_max                      =   1.0787502725165E+05
(PID.TID 0000.0001) %MON DXV_min                      =   2.8774847489886E+04
(PID.TID 0000.0001) %MON DXV_mean                     =   7.5485691984677E+04
(PID.TID 0000.0001) %MON DXV_sd                       =   2.3877575243700E+04
(PID.TID 0000.0001) %MON YC_max                       =   7.5500000000000E+01
(PID.TID 0000.0001) %MON YC_min                       =   1.4500000000000E+01
(PID.TID 0000.0001) %MON YC_mean                      =   4.5000000000000E+01
(PID.TID 0000.0001) %MON YC_sd                        =   1.7895530168173E+01
(PID.TID 0000.0001) %MON YG_max                       =   7.5000000000000E+01
(PID.TID 0000.0001) %MON YG_min                       =   1.4000000000000E+01
(PID.TID 0000.0001) %MON YG_mean                      =   4.4500000000000E+01
(PID.TID 0000.0001) %MON YG_sd                        =   1.7895530168173E+01
(PID.TID 0000.0001) %MON DYC_max                      =   1.1117747335204E+05
(PID.TID 0000.0001) %MON DYC_min                      =   1.1117747335204E+05
(PID.TID 0000.0001) %MON DYC_mean                     =   1.1117747335203E+05
(PID.TID 0000.0001) %MON DYC_sd                       =   6.1554601415992E-09
(PID.TID 0000.0001) %MON DYF_max                      =   1.1117747335204E+05
(PID.TID 0000.0001) %MON DYF_min                      =   1.1117747335204E+05
(PID.TID 0000.0001) %MON DYF_mean                     =   1.1117747335203E+05
(PID.TID 0000.0001) %MON DYF_sd                       =   6.1554601415992E-09
(PID.TID 0000.0001) %MON DYG_max                      =   1.1117747335204E+05
(PID.TID 0000.0001) %MON DYG_min                      =   1.1117747335204E+05
(PID.TID 0000.0001) %MON DYG_mean                     =   1.1117747335203E+05
(PID.TID 0000.0001) %MON DYG_sd                       =   6.1554601415992E-09
(PID.TID 0000.0001) %MON DYU_max                      =   1.1117747335204E+05
(PID.TID 0000.0001) %MON DYU_min                      =   1.1117747335204E+05
(PID.TID 0000.0001) %MON DYU_mean                     =   1.1117747335203E+05
(PID.TID 0000.0001) %MON DYU_sd                       =   6.1554601415992E-09
(PID.TID 0000.0001) %MON RA_max                       =   1.1966569815247E+10
(PID.TID 0000.0001) %MON RA_min                       =   3.0947653786454E+09
(PID.TID 0000.0001) %MON RA_mean                      =   8.3199147564140E+09
(PID.TID 0000.0001) %MON RA_sd                        =   2.6771629371464E+09
(PID.TID 0000.0001) %MON RAW_max                      =   1.1966569815247E+10
(PID.TID 0000.0001) %MON RAW_min                      =   3.0947653786454E+09
(PID.TID 0000.0001) %MON RAW_mean                     =   8.3199147564140E+09
(PID.TID 0000.0001) %MON RAW_sd                       =   2.6771629371464E+09
(PID.TID 0000.0001) %MON RAS_max                      =   1.1993120744872E+10
(PID.TID 0000.0001) %MON RAS_min                      =   3.1990742357492E+09
(PID.TID 0000.0001) %MON RAS_mean                     =   8.3922019910189E+09
(PID.TID 0000.0001) %MON RAS_sd                       =   2.6546147916555E+09
(PID.TID 0000.0001) %MON RAZ_max                      =   1.1993120744872E+10
(PID.TID 0000.0001) %MON RAZ_min                      =   3.1990742357492E+09
(PID.TID 0000.0001) %MON RAZ_mean                     =   8.3922019910189E+09
(PID.TID 0000.0001) %MON RAZ_sd                       =   2.6546147916555E+09
(PID.TID 0000.0001) %MON AngleCS_max                  =   1.0000000000000E+00
(PID.TID 0000.0001) %MON AngleCS_min                  =   1.0000000000000E+00
(PID.TID 0000.0001) %MON AngleCS_mean                 =   1.0000000000000E+00
(PID.TID 0000.0001) %MON AngleCS_sd                   =   0.0000000000000E+00
(PID.TID 0000.0001) %MON AngleSN_max                  =   0.0000000000000E+00
(PID.TID 0000.0001) %MON AngleSN_min                  =   0.0000000000000E+00
(PID.TID 0000.0001) %MON AngleSN_mean                 =   0.0000000000000E+00
(PID.TID 0000.0001) %MON AngleSN_sd                   =   0.0000000000000E+00
(PID.TID 0000.0001) GAD_INIT_FIXED: GAD_OlMinSize=  2  0  1
(PID.TID 0000.0001) 
(PID.TID 0000.0001) // ===================================
(PID.TID 0000.0001) // GAD parameters :
(PID.TID 0000.0001) // ===================================
(PID.TID 0000.0001) tempAdvScheme =   /* Temp. Horiz.Advection scheme selector */
(PID.TID 0000.0001)                      33
(PID.TID 0000.0001)     ;
(PID.TID 0000.0001) tempVertAdvScheme =   /* Temp. Vert. Advection scheme selector */
(PID.TID 0000.0001)                      33
(PID.TID 0000.0001)     ;
(PID.TID 0000.0001) tempMultiDimAdvec =   /* use Muti-Dim Advec method for Temp */
(PID.TID 0000.0001)                   T
(PID.TID 0000.0001)     ;
(PID.TID 0000.0001) tempSOM_Advection = /* use 2nd Order Moment Advection for Temp */
(PID.TID 0000.0001)                   F
(PID.TID 0000.0001)     ;
(PID.TID 0000.0001) AdamsBashforthGt = /* apply Adams-Bashforth extrapolation on Gt */
(PID.TID 0000.0001)                   F
(PID.TID 0000.0001)     ;
(PID.TID 0000.0001) AdamsBashforth_T = /* apply Adams-Bashforth extrapolation on Temp */
(PID.TID 0000.0001)                   F
(PID.TID 0000.0001)     ;
(PID.TID 0000.0001) saltAdvScheme =   /* Salt. Horiz.advection scheme selector */
(PID.TID 0000.0001)                      33
(PID.TID 0000.0001)     ;
(PID.TID 0000.0001) saltVertAdvScheme =   /* Salt. Vert. Advection scheme selector */
(PID.TID 0000.0001)                      33
(PID.TID 0000.0001)     ;
(PID.TID 0000.0001) saltMultiDimAdvec =   /* use Muti-Dim Advec method for Salt */
(PID.TID 0000.0001)                   T
(PID.TID 0000.0001)     ;
(PID.TID 0000.0001) saltSOM_Advection = /* use 2nd Order Moment Advection for Salt */
(PID.TID 0000.0001)                   F
(PID.TID 0000.0001)     ;
(PID.TID 0000.0001) AdamsBashforthGs = /* apply Adams-Bashforth extrapolation on Gs */
(PID.TID 0000.0001)                   F
(PID.TID 0000.0001)     ;
(PID.TID 0000.0001) AdamsBashforth_S = /* apply Adams-Bashforth extrapolation on Salt */
(PID.TID 0000.0001)                   F
(PID.TID 0000.0001)     ;
(PID.TID 0000.0001) // ===================================
(PID.TID 0000.0001) CTRL_INIT_FIXED: ivar=   2 = number of CTRL variables defined
(PID.TID 0000.0001) 
(PID.TID 0000.0001) ctrl-wet 1:    nvarlength =       164576
(PID.TID 0000.0001) ctrl-wet 2: surface wet C =         2892
(PID.TID 0000.0001) ctrl-wet 3: surface wet W =         2832
(PID.TID 0000.0001) ctrl-wet 4: surface wet S =         2832
(PID.TID 0000.0001) ctrl-wet 5: 3D wet points =        82288
(PID.TID 0000.0001) ctrl-wet 6: no recs for ivar =     1           1
(PID.TID 0000.0001) ctrl-wet 6: no recs for ivar =     2           1
(PID.TID 0000.0001) ctrl-wet 6: no recs for ivar =     3           0
(PID.TID 0000.0001) ctrl-wet 6: no recs for ivar =     4           0
(PID.TID 0000.0001) ctrl-wet 6: no recs for ivar =     5           0
(PID.TID 0000.0001) ctrl-wet 6: no recs for ivar =     6           0
(PID.TID 0000.0001) ctrl-wet 6: no recs for ivar =     7           0
(PID.TID 0000.0001) ctrl-wet -------------------------------------------------
(PID.TID 0000.0001) ctrl-wet 13: global nvarlength for Nr =   31      164576
(PID.TID 0000.0001) ctrl-wet -------------------------------------------------
(PID.TID 0000.0001) ctrl-wet 14: global nWet C/S/W k=    1        2892        2832        2832
(PID.TID 0000.0001) ctrl-wet 14: global nWet C/S/W k=    2        2892        2832        2832
(PID.TID 0000.0001) ctrl-wet 14: global nWet C/S/W k=    3        2892        2832        2832
(PID.TID 0000.0001) ctrl-wet 14: global nWet C/S/W k=    4        2892        2832        2832
(PID.TID 0000.0001) ctrl-wet 14: global nWet C/S/W k=    5        2892        2832        2832
(PID.TID 0000.0001) ctrl-wet 14: global nWet C/S/W k=    6        2892        2832        2832
(PID.TID 0000.0001) ctrl-wet 14: global nWet C/S/W k=    7        2892        2832        2832
(PID.TID 0000.0001) ctrl-wet 14: global nWet C/S/W k=    8        2676        2618        2618
(PID.TID 0000.0001) ctrl-wet 14: global nWet C/S/W k=    9        2660        2602        2602
(PID.TID 0000.0001) ctrl-wet 14: global nWet C/S/W k=   10        2644        2586        2586
(PID.TID 0000.0001) ctrl-wet 14: global nWet C/S/W k=   11        2632        2574        2574
(PID.TID 0000.0001) ctrl-wet 14: global nWet C/S/W k=   12        2632        2574        2574
(PID.TID 0000.0001) ctrl-wet 14: global nWet C/S/W k=   13        2624        2566        2566
(PID.TID 0000.0001) ctrl-wet 14: global nWet C/S/W k=   14        2608        2550        2550
(PID.TID 0000.0001) ctrl-wet 14: global nWet C/S/W k=   15        2608        2550        2550
(PID.TID 0000.0001) ctrl-wet 14: global nWet C/S/W k=   16        2600        2542        2542
(PID.TID 0000.0001) ctrl-wet 14: global nWet C/S/W k=   17        2600        2542        2542
(PID.TID 0000.0001) ctrl-wet 14: global nWet C/S/W k=   18        2600        2542        2542
(PID.TID 0000.0001) ctrl-wet 14: global nWet C/S/W k=   19        2584        2526        2526
(PID.TID 0000.0001) ctrl-wet 14: global nWet C/S/W k=   20        2584        2526        2526
(PID.TID 0000.0001) ctrl-wet 14: global nWet C/S/W k=   21        2584        2526        2526
(PID.TID 0000.0001) ctrl-wet 14: global nWet C/S/W k=   22        2584        2526        2526
(PID.TID 0000.0001) ctrl-wet 14: global nWet C/S/W k=   23        2576        2518        2518
(PID.TID 0000.0001) ctrl-wet 14: global nWet C/S/W k=   24        2576        2518        2518
(PID.TID 0000.0001) ctrl-wet 14: global nWet C/S/W k=   25        2568        2510        2510
(PID.TID 0000.0001) ctrl-wet 14: global nWet C/S/W k=   26        2536        2480        2480
(PID.TID 0000.0001) ctrl-wet 14: global nWet C/S/W k=   27        2528        2472        2472
(PID.TID 0000.0001) ctrl-wet 14: global nWet C/S/W k=   28        2528        2472        2472
(PID.TID 0000.0001) ctrl-wet 14: global nWet C/S/W k=   29        2512        2456        2456
(PID.TID 0000.0001) ctrl-wet 14: global nWet C/S/W k=   30        2504        2448        2448
(PID.TID 0000.0001) ctrl-wet 14: global nWet C/S/W k=   31        2496        2440        2440
(PID.TID 0000.0001) ctrl-wet -------------------------------------------------
(PID.TID 0000.0001) ctrl_init_wet: no. of control variables:            2
(PID.TID 0000.0001) ctrl_init_wet: control vector length:          164576
(PID.TID 0000.0001) 
(PID.TID 0000.0001) // =======================================================
(PID.TID 0000.0001) // control vector configuration  >>> START <<<
(PID.TID 0000.0001) // =======================================================
(PID.TID 0000.0001) 
(PID.TID 0000.0001)  Total number of ocean points per tile:
(PID.TID 0000.0001)  --------------------------------------
(PID.TID 0000.0001)  sNx*sNy*Nr =   119164
(PID.TID 0000.0001) 
(PID.TID 0000.0001)  Number of ocean points per tile:
(PID.TID 0000.0001)  --------------------------------
(PID.TID 0000.0001)  bi,bj,#(c/s/w): 001 001   82288   80488   80488
(PID.TID 0000.0001) 
(PID.TID 0000.0001)  -> 3d control, genarr3d no.  1 is in use
(PID.TID 0000.0001)       file       = xx_theta
(PID.TID 0000.0001)       ncvartype  = Arr3D
(PID.TID 0000.0001)       index      =     1  (use this for pkg/grdchk)
(PID.TID 0000.0001)       ncvarindex =     1
(PID.TID 0000.0001)       weight     = ones_64b.bin
(PID.TID 0000.0001) 
(PID.TID 0000.0001)  -> 3d control, genarr3d no.  2 is in use
(PID.TID 0000.0001)       file       = xx_salt
(PID.TID 0000.0001)       ncvartype  = Arr3D
(PID.TID 0000.0001)       index      =     2  (use this for pkg/grdchk)
(PID.TID 0000.0001)       ncvarindex =     2
(PID.TID 0000.0001)       weight     = ones_64b.bin
(PID.TID 0000.0001) 
(PID.TID 0000.0001) // =======================================================
(PID.TID 0000.0001) // control vector configuration  >>> END <<<
(PID.TID 0000.0001) // =======================================================
(PID.TID 0000.0001) 
(PID.TID 0000.0001) ------------------------------------------------------------
(PID.TID 0000.0001) DIAGNOSTICS_SET_LEVELS: done
(PID.TID 0000.0001)  Total Nb of available Diagnostics: ndiagt=   230
(PID.TID 0000.0001) SETDIAG: Allocate  1 x  1 Levels for Diagnostic #    23 ETAN
(PID.TID 0000.0001) SETDIAG: Allocate  1 x  1 Levels for Diagnostic #    89 TRELAX
(PID.TID 0000.0001) SETDIAG: Allocate  1 x  1 Levels for Diagnostic #    76 MXLDEPTH
(PID.TID 0000.0001) SETDIAG: Allocate 31 x  1 Levels for Diagnostic #    26 THETA
(PID.TID 0000.0001) SETDIAG: Allocate 31 x  1 Levels for Diagnostic #    71 PHIHYD
(PID.TID 0000.0001) SETDIAG: Allocate 31 x  1 Levels for Diagnostic #    30 UVEL
(PID.TID 0000.0001) SETDIAG: Allocate 31 x  1 Levels for Diagnostic #    31 VVEL
(PID.TID 0000.0001) SETDIAG: Allocate 31 x  1 Levels for Diagnostic #    32 WVEL
(PID.TID 0000.0001) SETDIAG: Allocate 31 x  1 Levels for Diagnostic #    33 THETASQ
(PID.TID 0000.0001) SETDIAG: Allocate 31 x  1 Levels for Diagnostic #    36 UVELSQ
(PID.TID 0000.0001) SETDIAG: Allocate 31 x  1 Levels for Diagnostic #    37 VVELSQ
(PID.TID 0000.0001) SETDIAG: Allocate 31 x  1 Levels for Diagnostic #    38 WVELSQ
(PID.TID 0000.0001) SETDIAG: Diag #    48 PhiVEL   processed from Diag #    45 UVELMASS
(PID.TID 0000.0001) SETDIAG: Allocate 31 x  1 Levels for Diagnostic #    45 UVELMASS
(PID.TID 0000.0001) SETDIAG: Allocate 31 x  1 Levels for Mate Diag. #    46 VVELMASS
(PID.TID 0000.0001) SETDIAG: Diag #    49 PsiVEL   processed from Diag #    48 PhiVEL
(PID.TID 0000.0001) - NOTE - SETDIAG:  Diagnostic  #    48 PhiVEL   is already set
(PID.TID 0000.0001) SETDIAG: Allocate 31 x  1 Levels for Diagnostic #   168 momKE
(PID.TID 0000.0001)   space allocated for all diagnostics:     375 levels
(PID.TID 0000.0001)   set mate pointer for diag #    30  UVEL     , Parms: UUR     MR , mate:    31
(PID.TID 0000.0001)   set mate pointer for diag #    31  VVEL     , Parms: VVR     MR , mate:    30
(PID.TID 0000.0001)   set mate pointer for diag #    36  UVELSQ   , Parms: UURP    MR , mate:    37
(PID.TID 0000.0001)   set mate pointer for diag #    37  VVELSQ   , Parms: VVRP    MR , mate:    36
(PID.TID 0000.0001)   set mate pointer for diag #    45  UVELMASS , Parms: UUr     MR , mate:    46
(PID.TID 0000.0001)   set mate pointer for diag #    46  VVELMASS , Parms: VVr     MR , mate:    45
(PID.TID 0000.0001) DIAGNOSTICS_SET_POINTERS: Set levels for Outp.Stream: surfDiag
(PID.TID 0000.0001)  Levels:       1.
(PID.TID 0000.0001) DIAGNOSTICS_SET_POINTERS: Set levels for Outp.Stream: dynDiag
(PID.TID 0000.0001)  Levels:       1.   2.   3.   4.   5.   6.   7.   8.   9.  10.  11.  12.  13.  14.  15.  16.  17.  18.  19.  20.
(PID.TID 0000.0001)  Levels:      21.  22.  23.  24.  25.  26.  27.  28.  29.  30.  31.
(PID.TID 0000.0001) DIAGNOSTICS_SET_POINTERS: done, use     375 levels (numDiags =     620 )
(PID.TID 0000.0001) ------------------------------------------------------------
(PID.TID 0000.0001) DIAGSTATS_SET_REGIONS: define no region
(PID.TID 0000.0001) ------------------------------------------------------------
(PID.TID 0000.0001) SETDIAG: Allocate 31 Levels for Stats-Diag #    26 THETA
(PID.TID 0000.0001) SETDIAG: Allocate  1 Levels for Stats-Diag #    89 TRELAX
(PID.TID 0000.0001)   space allocated for all stats-diags:      32 levels
(PID.TID 0000.0001) DIAGSTATS_SET_POINTERS: done, use      32 levels (diagSt_size=     310 )
(PID.TID 0000.0001) ------------------------------------------------------------
(PID.TID 0000.0001) %MON fCori_max                    =   1.4119704352640E-04
(PID.TID 0000.0001) %MON fCori_min                    =   3.6516038314991E-05
(PID.TID 0000.0001) %MON fCori_mean                   =   9.8169098090287E-05
(PID.TID 0000.0001) %MON fCori_sd                     =   3.1588625445689E-05
(PID.TID 0000.0001) %MON fCoriG_max                   =   1.4087300867102E-04
(PID.TID 0000.0001) %MON fCoriG_min                   =   3.5282486883545E-05
(PID.TID 0000.0001) %MON fCoriG_mean                  =   9.7308683992512E-05
(PID.TID 0000.0001) %MON fCoriG_sd                    =   3.1852455422807E-05
(PID.TID 0000.0001) %MON fCoriCos_max                 =   1.4119704352640E-04
(PID.TID 0000.0001) %MON fCoriCos_min                 =   3.6516038314991E-05
(PID.TID 0000.0001) %MON fCoriCos_mean                =   9.8169098090291E-05
(PID.TID 0000.0001) %MON fCoriCos_sd                  =   3.1588625445688E-05
(PID.TID 0000.0001) INI_CG2D: CG2D normalisation factor =  8.6024439359483882E-05
(PID.TID 0000.0001) 
(PID.TID 0000.0001) // =======================================================
(PID.TID 0000.0001) // Model configuration
(PID.TID 0000.0001) // =======================================================
(PID.TID 0000.0001) //
(PID.TID 0000.0001) // "Physical" paramters ( PARM01 in namelist )
(PID.TID 0000.0001) //
(PID.TID 0000.0001) buoyancyRelation = /* Type of relation to get Buoyancy */
(PID.TID 0000.0001)               'OCEANIC'
(PID.TID 0000.0001)     ;
(PID.TID 0000.0001) fluidIsAir   =  /* fluid major constituent is Air */
(PID.TID 0000.0001)                   F
(PID.TID 0000.0001)     ;
(PID.TID 0000.0001) fluidIsWater =  /* fluid major constituent is Water */
(PID.TID 0000.0001)                   T
(PID.TID 0000.0001)     ;
(PID.TID 0000.0001) usingPCoords =  /* use p (or p*) vertical coordinate */
(PID.TID 0000.0001)                   F
(PID.TID 0000.0001)     ;
(PID.TID 0000.0001) usingZCoords =  /* use z (or z*) vertical coordinate */
(PID.TID 0000.0001)                   T
(PID.TID 0000.0001)     ;
(PID.TID 0000.0001) tRef =   /* Reference temperature profile ( oC or K ) */
(PID.TID 0000.0001)     3 @  2.300000000000000E+01,             /* K =  1:  3 */
(PID.TID 0000.0001)                 2.200000000000000E+01,      /* K =  4 */
(PID.TID 0000.0001)                 2.100000000000000E+01,      /* K =  5 */
(PID.TID 0000.0001)                 2.000000000000000E+01,      /* K =  6 */
(PID.TID 0000.0001)                 1.900000000000000E+01,      /* K =  7 */
(PID.TID 0000.0001)                 1.700000000000000E+01,      /* K =  8 */
(PID.TID 0000.0001)                 1.600000000000000E+01,      /* K =  9 */
(PID.TID 0000.0001)                 1.500000000000000E+01,      /* K = 10 */
(PID.TID 0000.0001)                 1.400000000000000E+01,      /* K = 11 */
(PID.TID 0000.0001)                 1.200000000000000E+01,      /* K = 12 */
(PID.TID 0000.0001)                 1.100000000000000E+01,      /* K = 13 */
(PID.TID 0000.0001)                 1.000000000000000E+01,      /* K = 14 */
(PID.TID 0000.0001)                 9.000000000000000E+00,      /* K = 15 */
(PID.TID 0000.0001)                 8.000000000000000E+00,      /* K = 16 */
(PID.TID 0000.0001)                 7.000000000000000E+00,      /* K = 17 */
(PID.TID 0000.0001)     2 @  6.000000000000000E+00,             /* K = 18: 19 */
(PID.TID 0000.0001)     2 @  5.000000000000000E+00,             /* K = 20: 21 */
(PID.TID 0000.0001)     2 @  4.000000000000000E+00,             /* K = 22: 23 */
(PID.TID 0000.0001)     2 @  3.000000000000000E+00,             /* K = 24: 25 */
(PID.TID 0000.0001)     2 @  2.000000000000000E+00,             /* K = 26: 27 */
(PID.TID 0000.0001)     4 @  1.000000000000000E+00              /* K = 28: 31 */
(PID.TID 0000.0001)     ;
(PID.TID 0000.0001) sRef =   /* Reference salinity profile ( g/kg ) */
(PID.TID 0000.0001)    31 @  3.450000000000000E+01              /* K =  1: 31 */
(PID.TID 0000.0001)     ;
(PID.TID 0000.0001) rhoRef =   /* Density vertical profile from (Ref,sRef)( kg/m^3 ) */
(PID.TID 0000.0001)                 1.023577572005954E+03,      /* K =  1 */
(PID.TID 0000.0001)                 1.023623549263207E+03,      /* K =  2 */
(PID.TID 0000.0001)                 1.023675613276342E+03,      /* K =  3 */
(PID.TID 0000.0001)                 1.024018569869809E+03,      /* K =  4 */
(PID.TID 0000.0001)                 1.024361629697283E+03,      /* K =  5 */
(PID.TID 0000.0001)                 1.024705804444866E+03,      /* K =  6 */
(PID.TID 0000.0001)                 1.025052271508737E+03,      /* K =  7 */
(PID.TID 0000.0001)                 1.025645661964391E+03,      /* K =  8 */
(PID.TID 0000.0001)                 1.025992592411289E+03,      /* K =  9 */
(PID.TID 0000.0001)                 1.026346361931734E+03,      /* K = 10 */
(PID.TID 0000.0001)                 1.026709001157942E+03,      /* K = 11 */
(PID.TID 0000.0001)                 1.027282846338663E+03,      /* K = 12 */
(PID.TID 0000.0001)                 1.027661721921800E+03,      /* K = 13 */
(PID.TID 0000.0001)                 1.028057401528922E+03,      /* K = 14 */
(PID.TID 0000.0001)                 1.028473375249018E+03,      /* K = 15 */
(PID.TID 0000.0001)                 1.028913616650366E+03,      /* K = 16 */
(PID.TID 0000.0001)                 1.029382636686713E+03,      /* K = 17 */
(PID.TID 0000.0001)                 1.029885606645691E+03,      /* K = 18 */
(PID.TID 0000.0001)                 1.030290072892818E+03,      /* K = 19 */
(PID.TID 0000.0001)                 1.030888016683447E+03,      /* K = 20 */
(PID.TID 0000.0001)                 1.031407239662327E+03,      /* K = 21 */
(PID.TID 0000.0001)                 1.032129670505891E+03,      /* K = 22 */
(PID.TID 0000.0001)                 1.032795424975157E+03,      /* K = 23 */
(PID.TID 0000.0001)                 1.033679764328331E+03,      /* K = 24 */
(PID.TID 0000.0001)                 1.034532122852911E+03,      /* K = 25 */
(PID.TID 0000.0001)                 1.035625595542812E+03,      /* K = 26 */
(PID.TID 0000.0001)                 1.036714659799745E+03,      /* K = 27 */
(PID.TID 0000.0001)                 1.038076228708180E+03,      /* K = 28 */
(PID.TID 0000.0001)                 1.039464021739831E+03,      /* K = 29 */
(PID.TID 0000.0001)                 1.041023891510315E+03,      /* K = 30 */
(PID.TID 0000.0001)                 1.042775365441382E+03       /* K = 31 */
(PID.TID 0000.0001)     ;
(PID.TID 0000.0001) dBdrRef = /* Vertical grad. of reference buoyancy [(m/s/r)^2] */
(PID.TID 0000.0001)     3 @  0.000000000000000E+00,             /* K =  1:  3 */
(PID.TID 0000.0001)                 1.981426362570402E-04,      /* K =  4 */
(PID.TID 0000.0001)                 1.701092979003860E-04,      /* K =  5 */
(PID.TID 0000.0001)                 1.458715085243869E-04,      /* K =  6 */
(PID.TID 0000.0001)                 1.249125719785483E-04,      /* K =  7 */
(PID.TID 0000.0001)                 2.099649801856568E-04,      /* K =  8 */
(PID.TID 0000.0001)                 8.792303423357168E-05,      /* K =  9 */
(PID.TID 0000.0001)                 7.484001221613001E-05,      /* K = 10 */
(PID.TID 0000.0001)                 6.358666111189054E-05,      /* K = 11 */
(PID.TID 0000.0001)                 1.054006897248987E-04,      /* K = 12 */
(PID.TID 0000.0001)                 4.344210601996791E-05,      /* K = 13 */
(PID.TID 0000.0001)                 3.656879805711143E-05,      /* K = 14 */
(PID.TID 0000.0001)                 3.069973543024333E-05,      /* K = 15 */
(PID.TID 0000.0001)                 2.570018494684971E-05,      /* K = 16 */
(PID.TID 0000.0001)                 2.145254771255852E-05,      /* K = 17 */
(PID.TID 0000.0001)                 1.785089392823324E-05,      /* K = 18 */
(PID.TID 0000.0001)                 0.000000000000000E+00,      /* K = 19 */
(PID.TID 0000.0001)                 1.329610664296088E-05,      /* K = 20 */
(PID.TID 0000.0001)                 0.000000000000000E+00,      /* K = 21 */
(PID.TID 0000.0001)                 9.975032051112675E-06,      /* K = 22 */
(PID.TID 0000.0001)                 0.000000000000000E+00,      /* K = 23 */
(PID.TID 0000.0001)                 7.572079405734685E-06,      /* K = 24 */
(PID.TID 0000.0001)                 0.000000000000000E+00,      /* K = 25 */
(PID.TID 0000.0001)                 5.849104430055921E-06,      /* K = 26 */
(PID.TID 0000.0001)                 0.000000000000000E+00,      /* K = 27 */
(PID.TID 0000.0001)                 4.627878774813460E-06,      /* K = 28 */
(PID.TID 0000.0001)     3 @  0.000000000000000E+00              /* K = 29: 31 */
(PID.TID 0000.0001)     ;
(PID.TID 0000.0001) useStrainTensionVisc= /* Use StrainTension Form of Viscous Operator */
(PID.TID 0000.0001)                   F
(PID.TID 0000.0001)     ;
(PID.TID 0000.0001) useVariableVisc = /* Use variable horizontal viscosity */
(PID.TID 0000.0001)                   T
(PID.TID 0000.0001)     ;
(PID.TID 0000.0001) useHarmonicVisc = /* Use harmonic horizontal viscosity */
(PID.TID 0000.0001)                   F
(PID.TID 0000.0001)     ;
(PID.TID 0000.0001) useBiharmonicVisc= /* Use biharmonic horiz.  viscosity */
(PID.TID 0000.0001)                   T
(PID.TID 0000.0001)     ;
(PID.TID 0000.0001) useSmag3D = /* Use isotropic 3-D Smagorinsky viscosity */
(PID.TID 0000.0001)                   F
(PID.TID 0000.0001)     ;
(PID.TID 0000.0001) viscAh  =   /* Lateral harmonic viscosity ( m^2/s ) */
(PID.TID 0000.0001)                 0.000000000000000E+00
(PID.TID 0000.0001)     ;
(PID.TID 0000.0001) viscAhMax = /* Maximum lateral harmonic viscosity ( m^2/s ) */
(PID.TID 0000.0001)                 1.000000000000000E+21
(PID.TID 0000.0001)     ;
(PID.TID 0000.0001) viscAhGrid = /* Grid dependent lateral harmonic viscosity ( non-dim. ) */
(PID.TID 0000.0001)                 0.000000000000000E+00
(PID.TID 0000.0001)     ;
(PID.TID 0000.0001) useFullLeith = /* Use Full Form of Leith Viscosity on/off flag*/
(PID.TID 0000.0001)                   F
(PID.TID 0000.0001)     ;
(PID.TID 0000.0001) useAreaViscLength = /* Use area for visc length instead of geom. mean*/
(PID.TID 0000.0001)                   T
(PID.TID 0000.0001)     ;
(PID.TID 0000.0001) viscC2leith = /* Leith harmonic visc. factor (on grad(vort),non-dim.) */
(PID.TID 0000.0001)                 0.000000000000000E+00
(PID.TID 0000.0001)     ;
(PID.TID 0000.0001) viscC2leithD = /* Leith harmonic viscosity factor (on grad(div),non-dim.)*/
(PID.TID 0000.0001)                 0.000000000000000E+00
(PID.TID 0000.0001)     ;
(PID.TID 0000.0001) viscC2LeithQG = /* QG Leith harmonic viscosity factor (non-dim.)*/
(PID.TID 0000.0001)                 0.000000000000000E+00
(PID.TID 0000.0001)     ;
(PID.TID 0000.0001) viscC2smag = /* Smagorinsky harmonic viscosity factor (non-dim.) */
(PID.TID 0000.0001)                 0.000000000000000E+00
(PID.TID 0000.0001)     ;
(PID.TID 0000.0001) viscA4  =   /* Lateral biharmonic viscosity ( m^4/s ) */
(PID.TID 0000.0001)                 0.000000000000000E+00
(PID.TID 0000.0001)     ;
(PID.TID 0000.0001) viscA4Max = /* Maximum biharmonic viscosity ( m^2/s ) */
(PID.TID 0000.0001)                 1.000000000000000E+21
(PID.TID 0000.0001)     ;
(PID.TID 0000.0001) viscA4Grid = /* Grid dependent biharmonic viscosity ( non-dim. ) */
(PID.TID 0000.0001)                 0.000000000000000E+00
(PID.TID 0000.0001)     ;
(PID.TID 0000.0001) viscC4leith = /* Leith biharm viscosity factor (on grad(vort), non-dim.)*/
(PID.TID 0000.0001)                 2.150000000000000E+00
(PID.TID 0000.0001)     ;
(PID.TID 0000.0001) viscC4leithD = /* Leith biharm viscosity factor (on grad(div), non-dim.) */
(PID.TID 0000.0001)                 2.150000000000000E+00
(PID.TID 0000.0001)     ;
(PID.TID 0000.0001) viscC4Smag = /* Smagorinsky biharm viscosity factor (non-dim) */
(PID.TID 0000.0001)                 0.000000000000000E+00
(PID.TID 0000.0001)     ;
(PID.TID 0000.0001) no_slip_sides =  /* Viscous BCs: No-slip sides */
(PID.TID 0000.0001)                   T
(PID.TID 0000.0001)     ;
(PID.TID 0000.0001) sideDragFactor = /* side-drag scaling factor (non-dim) */
(PID.TID 0000.0001)                 2.000000000000000E+00
(PID.TID 0000.0001)     ;
(PID.TID 0000.0001) viscArNr = /* vertical profile of vertical viscosity ( m^2/s )*/
(PID.TID 0000.0001)    31 @  0.000000000000000E+00              /* K =  1: 31 */
(PID.TID 0000.0001)     ;
(PID.TID 0000.0001) no_slip_bottom =  /* Viscous BCs: No-slip bottom */
(PID.TID 0000.0001)                   T
(PID.TID 0000.0001)     ;
(PID.TID 0000.0001) bottomVisc_pCell = /* Partial-cell in bottom Visc. BC */
(PID.TID 0000.0001)                   F
(PID.TID 0000.0001)     ;
(PID.TID 0000.0001) bottomDragLinear = /* linear bottom-drag coefficient ( m/s ) */
(PID.TID 0000.0001)                 0.000000000000000E+00
(PID.TID 0000.0001)     ;
(PID.TID 0000.0001) bottomDragQuadratic = /* quadratic bottom-drag coefficient (-) */
(PID.TID 0000.0001)                 2.100000000000000E-03
(PID.TID 0000.0001)     ;
(PID.TID 0000.0001) selectBotDragQuadr = /* select quadratic bottom drag options */
(PID.TID 0000.0001)                       0
(PID.TID 0000.0001)     ;
(PID.TID 0000.0001) diffKhT =   /* Laplacian diffusion of heat laterally ( m^2/s ) */
(PID.TID 0000.0001)                 0.000000000000000E+00
(PID.TID 0000.0001)     ;
(PID.TID 0000.0001) diffK4T =   /* Biharmonic diffusion of heat laterally ( m^4/s ) */
(PID.TID 0000.0001)                 0.000000000000000E+00
(PID.TID 0000.0001)     ;
(PID.TID 0000.0001) diffKhS =   /* Laplacian diffusion of salt laterally ( m^2/s ) */
(PID.TID 0000.0001)                 0.000000000000000E+00
(PID.TID 0000.0001)     ;
(PID.TID 0000.0001) diffK4S =   /* Biharmonic diffusion of salt laterally ( m^4/s ) */
(PID.TID 0000.0001)                 0.000000000000000E+00
(PID.TID 0000.0001)     ;
(PID.TID 0000.0001) diffKrNrT = /* vertical profile of vertical diffusion of Temp ( m^2/s )*/
(PID.TID 0000.0001)    31 @  0.000000000000000E+00              /* K =  1: 31 */
(PID.TID 0000.0001)     ;
(PID.TID 0000.0001) diffKrNrS = /* vertical profile of vertical diffusion of Salt ( m^2/s )*/
(PID.TID 0000.0001)    31 @  0.000000000000000E+00              /* K =  1: 31 */
(PID.TID 0000.0001)     ;
(PID.TID 0000.0001) diffKrBL79surf = /* Surface diffusion for Bryan and Lewis 79 ( m^2/s ) */
(PID.TID 0000.0001)                 0.000000000000000E+00
(PID.TID 0000.0001)     ;
(PID.TID 0000.0001) diffKrBL79deep = /* Deep diffusion for Bryan and Lewis 1979 ( m^2/s ) */
(PID.TID 0000.0001)                 0.000000000000000E+00
(PID.TID 0000.0001)     ;
(PID.TID 0000.0001) diffKrBL79scl = /* Depth scale for Bryan and Lewis 1979 ( m ) */
(PID.TID 0000.0001)                 2.000000000000000E+02
(PID.TID 0000.0001)     ;
(PID.TID 0000.0001) diffKrBL79Ho = /* Turning depth for Bryan and Lewis 1979 ( m ) */
(PID.TID 0000.0001)                -2.000000000000000E+03
(PID.TID 0000.0001)     ;
(PID.TID 0000.0001) ivdc_kappa = /* Implicit Vertical Diffusivity for Convection ( m^2/s) */
(PID.TID 0000.0001)                 0.000000000000000E+00
(PID.TID 0000.0001)     ;
(PID.TID 0000.0001) hMixCriteria=  /* Criteria for mixed-layer diagnostic */
(PID.TID 0000.0001)                -8.000000000000000E-01
(PID.TID 0000.0001)     ;
(PID.TID 0000.0001) dRhoSmall =  /* Parameter for mixed-layer diagnostic */
(PID.TID 0000.0001)                 1.000000000000000E-06
(PID.TID 0000.0001)     ;
(PID.TID 0000.0001) hMixSmooth=  /* Smoothing parameter for mixed-layer diagnostic */
(PID.TID 0000.0001)                 0.000000000000000E+00
(PID.TID 0000.0001)     ;
(PID.TID 0000.0001) eosType =  /* Type of Equation of State */
(PID.TID 0000.0001)               'JMD95Z'
(PID.TID 0000.0001)     ;
(PID.TID 0000.0001) eosRefP0 = /* Reference atmospheric pressure for EOS ( Pa ) */
(PID.TID 0000.0001)                 1.013250000000000E+05
(PID.TID 0000.0001)     ;
(PID.TID 0000.0001) selectP_inEOS_Zc = /* select pressure to use in EOS (0,1,2,3) */
(PID.TID 0000.0001)                       0
(PID.TID 0000.0001)     0= -g*rhoConst*z ; 1= pRef (from tRef,sRef); 2= Hyd P ; 3= Hyd+NH P
(PID.TID 0000.0001)     ;
(PID.TID 0000.0001) surf_pRef = /* Surface reference pressure ( Pa ) */
(PID.TID 0000.0001)                 1.013250000000000E+05
(PID.TID 0000.0001)     ;
(PID.TID 0000.0001) HeatCapacity_Cp =  /* Specific heat capacity ( J/kg/K ) */
(PID.TID 0000.0001)                 3.994000000000000E+03
(PID.TID 0000.0001)     ;
(PID.TID 0000.0001) celsius2K = /* 0 degree Celsius converted to Kelvin ( K ) */
(PID.TID 0000.0001)                 2.731500000000000E+02
(PID.TID 0000.0001)     ;
(PID.TID 0000.0001) rhoConst  = /* Reference density (Boussinesq)  ( kg/m^3 ) */
(PID.TID 0000.0001)                 1.027500000000000E+03
(PID.TID 0000.0001)     ;
(PID.TID 0000.0001) rhoFacC = /* normalized Reference density @ cell-Center (-) */
(PID.TID 0000.0001)    31 @  1.000000000000000E+00              /* K =  1: 31 */
(PID.TID 0000.0001)     ;
(PID.TID 0000.0001) rhoFacF = /* normalized Reference density @ W-Interface (-) */
(PID.TID 0000.0001)    32 @  1.000000000000000E+00              /* K =  1: 32 */
(PID.TID 0000.0001)     ;
(PID.TID 0000.0001) rhoConstFresh = /* Fresh-water reference density ( kg/m^3 ) */
(PID.TID 0000.0001)                 9.998000000000000E+02
(PID.TID 0000.0001)     ;
(PID.TID 0000.0001) gravity =   /* Gravitational acceleration ( m/s^2 ) */
(PID.TID 0000.0001)                 9.810000000000000E+00
(PID.TID 0000.0001)     ;
(PID.TID 0000.0001) gBaro =   /* Barotropic gravity ( m/s^2 ) */
(PID.TID 0000.0001)                 9.810000000000000E+00
(PID.TID 0000.0001)     ;
(PID.TID 0000.0001) gravFacC = /* gravity factor (vs surf.) @ cell-Center (-) */
(PID.TID 0000.0001)    31 @  1.000000000000000E+00              /* K =  1: 31 */
(PID.TID 0000.0001)     ;
(PID.TID 0000.0001) gravFacF = /* gravity factor (vs surf.) @ W-Interface (-) */
(PID.TID 0000.0001)    32 @  1.000000000000000E+00              /* K =  1: 32 */
(PID.TID 0000.0001)     ;
(PID.TID 0000.0001) rotationPeriod =   /* Rotation Period ( s ) */
(PID.TID 0000.0001)                 8.616400000000000E+04
(PID.TID 0000.0001)     ;
(PID.TID 0000.0001) omega =   /* Angular velocity ( rad/s ) */
(PID.TID 0000.0001)                 7.292123516990375E-05
(PID.TID 0000.0001)     ;
(PID.TID 0000.0001) f0 =   /* Reference coriolis parameter ( 1/s ) */
(PID.TID 0000.0001)                 1.000000000000000E-04
(PID.TID 0000.0001)     ;
(PID.TID 0000.0001) beta =   /* Beta ( 1/(m.s) ) */
(PID.TID 0000.0001)                 9.999999999999999E-12
(PID.TID 0000.0001)     ;
(PID.TID 0000.0001) fPrime =   /* Second coriolis parameter ( 1/s ) */
(PID.TID 0000.0001)                 0.000000000000000E+00
(PID.TID 0000.0001)     ;
(PID.TID 0000.0001) rigidLid =   /* Rigid lid on/off flag */
(PID.TID 0000.0001)                   F
(PID.TID 0000.0001)     ;
(PID.TID 0000.0001) implicitFreeSurface =   /* Implicit free surface on/off flag */
(PID.TID 0000.0001)                   T
(PID.TID 0000.0001)     ;
(PID.TID 0000.0001) freeSurfFac =   /* Implicit free surface factor */
(PID.TID 0000.0001)                 1.000000000000000E+00
(PID.TID 0000.0001)     ;
(PID.TID 0000.0001) implicSurfPress =  /* Surface Pressure implicit factor (0-1) */
(PID.TID 0000.0001)                 1.000000000000000E+00
(PID.TID 0000.0001)     ;
(PID.TID 0000.0001) implicDiv2DFlow =  /* Barot. Flow Div. implicit factor (0-1) */
(PID.TID 0000.0001)                 1.000000000000000E+00
(PID.TID 0000.0001)     ;
(PID.TID 0000.0001) uniformLin_PhiSurf = /* use uniform Bo_surf on/off flag */
(PID.TID 0000.0001)                   T
(PID.TID 0000.0001)     ;
(PID.TID 0000.0001) uniformFreeSurfLev = /* free-surface level-index is uniform */
(PID.TID 0000.0001)                   T
(PID.TID 0000.0001)     ;
(PID.TID 0000.0001) sIceLoadFac =  /* scale factor for sIceLoad (0-1) */
(PID.TID 0000.0001)                 1.000000000000000E+00
(PID.TID 0000.0001)     ;
(PID.TID 0000.0001) hFacMin =   /* minimum partial cell factor (hFac) */
(PID.TID 0000.0001)                 3.000000000000000E-01
(PID.TID 0000.0001)     ;
(PID.TID 0000.0001) hFacMinDr = /* minimum partial cell thickness ( m) */
(PID.TID 0000.0001)                 5.000000000000000E+01
(PID.TID 0000.0001)     ;
(PID.TID 0000.0001) exactConserv =  /* Exact Volume Conservation on/off flag */
(PID.TID 0000.0001)                   T
(PID.TID 0000.0001)     ;
(PID.TID 0000.0001) linFSConserveTr = /* Tracer correction for Lin Free Surface on/off flag */
(PID.TID 0000.0001)                   F
(PID.TID 0000.0001)     ;
(PID.TID 0000.0001) nonlinFreeSurf = /* Non-linear Free Surf. options (-1,0,1,2,3)*/
(PID.TID 0000.0001)                       0
(PID.TID 0000.0001)      -1,0= Off ; 1,2,3= On, 2=+rescale gU,gV, 3=+update cg2d solv.
(PID.TID 0000.0001)     ;
(PID.TID 0000.0001) hFacInf =   /* lower threshold for hFac (nonlinFreeSurf only)*/
(PID.TID 0000.0001)                 1.000000000000000E-01
(PID.TID 0000.0001)     ;
(PID.TID 0000.0001) hFacSup =   /* upper threshold for hFac (nonlinFreeSurf only)*/
(PID.TID 0000.0001)                 5.000000000000000E+00
(PID.TID 0000.0001)     ;
(PID.TID 0000.0001) select_rStar = /* r* Vertical coord. options (=0 r coord.; >0 uses r*)*/
(PID.TID 0000.0001)                       0
(PID.TID 0000.0001)     ;
(PID.TID 0000.0001) useRealFreshWaterFlux = /* Real Fresh Water Flux on/off flag*/
(PID.TID 0000.0001)                   F
(PID.TID 0000.0001)     ;
(PID.TID 0000.0001) temp_EvPrRn = /* Temp. of Evap/Prec/R (UNSET=use local T)(oC)*/
(PID.TID 0000.0001)                 1.234567000000000E+05
(PID.TID 0000.0001)     ;
(PID.TID 0000.0001) salt_EvPrRn = /* Salin. of Evap/Prec/R (UNSET=use local S)(g/kg)*/
(PID.TID 0000.0001)                 0.000000000000000E+00
(PID.TID 0000.0001)     ;
(PID.TID 0000.0001) selectAddFluid = /* option for mass source/sink of fluid (=0: off) */
(PID.TID 0000.0001)                       0
(PID.TID 0000.0001)     ;
(PID.TID 0000.0001) temp_addMass = /* Temp. of addMass array (UNSET=use local T)(oC)*/
(PID.TID 0000.0001)                 1.234567000000000E+05
(PID.TID 0000.0001)     ;
(PID.TID 0000.0001) salt_addMass = /* Salin. of addMass array (UNSET=use local S)(g/kg)*/
(PID.TID 0000.0001)                 0.000000000000000E+00
(PID.TID 0000.0001)     ;
(PID.TID 0000.0001) convertFW2Salt = /* convert F.W. Flux to Salt Flux (-1=use local S)(g/kg)*/
(PID.TID 0000.0001)                 3.500000000000000E+01
(PID.TID 0000.0001)     ;
(PID.TID 0000.0001) use3Dsolver = /* use 3-D pressure solver on/off flag */
(PID.TID 0000.0001)                   F
(PID.TID 0000.0001)     ;
(PID.TID 0000.0001) nonHydrostatic =  /* Non-Hydrostatic on/off flag */
(PID.TID 0000.0001)                   F
(PID.TID 0000.0001)     ;
(PID.TID 0000.0001) nh_Am2 = /* Non-Hydrostatic terms scaling factor */
(PID.TID 0000.0001)                 1.000000000000000E+00
(PID.TID 0000.0001)     ;
(PID.TID 0000.0001) implicitNHPress = /* Non-Hyd Pressure implicit factor (0-1)*/
(PID.TID 0000.0001)                 1.000000000000000E+00
(PID.TID 0000.0001)     ;
(PID.TID 0000.0001) selectNHfreeSurf = /* Non-Hyd (free-)Surface option */
(PID.TID 0000.0001)                       0
(PID.TID 0000.0001)     ;
(PID.TID 0000.0001) quasiHydrostatic = /* Quasi-Hydrostatic on/off flag */
(PID.TID 0000.0001)                   F
(PID.TID 0000.0001)     ;
(PID.TID 0000.0001) calc_wVelocity = /* vertical velocity calculation on/off flag */
(PID.TID 0000.0001)                   T
(PID.TID 0000.0001)     ;
(PID.TID 0000.0001) momStepping =  /* Momentum equation on/off flag */
(PID.TID 0000.0001)                   T
(PID.TID 0000.0001)     ;
(PID.TID 0000.0001) vectorInvariantMomentum= /* Vector-Invariant Momentum on/off */
(PID.TID 0000.0001)                   T
(PID.TID 0000.0001)     ;
(PID.TID 0000.0001) momAdvection =  /* Momentum advection on/off flag */
(PID.TID 0000.0001)                   T
(PID.TID 0000.0001)     ;
(PID.TID 0000.0001) momViscosity =  /* Momentum viscosity on/off flag */
(PID.TID 0000.0001)                   T
(PID.TID 0000.0001)     ;
(PID.TID 0000.0001) momImplVertAdv= /* Momentum implicit vert. advection on/off*/
(PID.TID 0000.0001)                   F
(PID.TID 0000.0001)     ;
(PID.TID 0000.0001) implicitViscosity = /* Implicit viscosity on/off flag */
(PID.TID 0000.0001)                   T
(PID.TID 0000.0001)     ;
(PID.TID 0000.0001) selectImplicitDrag= /* Implicit bot Drag options (0,1,2)*/
(PID.TID 0000.0001)                       0
(PID.TID 0000.0001)     0= Expl. ; 1= Impl. on provis. Vel ; 2= Fully Impl (with surf.P)
(PID.TID 0000.0001)     ;
(PID.TID 0000.0001) selectMetricTerms= /* Metric-Terms on/off flag (=0/1) */
(PID.TID 0000.0001)                       1
(PID.TID 0000.0001)     ;
(PID.TID 0000.0001) useNHMTerms = /* Non-Hydrostatic Metric-Terms on/off */
(PID.TID 0000.0001)                   F
(PID.TID 0000.0001)     ;
(PID.TID 0000.0001) selectCoriMap = /* Coriolis Map options (0,1,2,3)*/
(PID.TID 0000.0001)                       2
(PID.TID 0000.0001)     0= f-Plane ; 1= Beta-Plane ; 2= Spherical ; 3= read from file
(PID.TID 0000.0001)     ;
(PID.TID 0000.0001) select3dCoriScheme= /* 3-D Coriolis on/off flag (=0/1) */
(PID.TID 0000.0001)                       0
(PID.TID 0000.0001)     ;
(PID.TID 0000.0001) useCoriolis =  /* Coriolis on/off flag */
(PID.TID 0000.0001)                   T
(PID.TID 0000.0001)     ;
(PID.TID 0000.0001) useCDscheme =  /* CD scheme on/off flag */
(PID.TID 0000.0001)                   F
(PID.TID 0000.0001)     ;
(PID.TID 0000.0001) selectCoriScheme= /* Scheme selector for Coriolis-Term */
(PID.TID 0000.0001)                       0
(PID.TID 0000.0001)    = 0 : original discretization (simple averaging, no hFac)
(PID.TID 0000.0001)    = 1 : Wet-point averaging (Jamar & Ozer 1986)
(PID.TID 0000.0001)    = 2 : hFac weighted average (Angular Mom. conserving)
(PID.TID 0000.0001)    = 3 : energy conserving scheme using hFac weighted average
(PID.TID 0000.0001)     ;
(PID.TID 0000.0001) useAbsVorticity= /* V.I Works with f+zeta in Coriolis */
(PID.TID 0000.0001)                   F
(PID.TID 0000.0001)     ;
(PID.TID 0000.0001) selectVortScheme= /* V.I Scheme selector for Vorticity-Term */
(PID.TID 0000.0001)                       1
(PID.TID 0000.0001)    = 0 : enstrophy (Shallow-Water Eq.) conserving scheme by Sadourny, JAS 75
(PID.TID 0000.0001)    = 1 : same as 0 with modified hFac
(PID.TID 0000.0001)    = 2 : energy conserving scheme (used by Sadourny in JAS 75 paper)
(PID.TID 0000.0001)    = 3 : energy (general) and enstrophy (2D, nonDiv.) conserving scheme
(PID.TID 0000.0001)          from Sadourny (Burridge & Haseler, ECMWF Rep.4, 1977)
(PID.TID 0000.0001)     ;
(PID.TID 0000.0001) useJamartMomAdv= /* V.I Non-linear terms Jamart flag */
(PID.TID 0000.0001)                   F
(PID.TID 0000.0001)     ;
(PID.TID 0000.0001) upwindVorticity= /* V.I Upwind bias vorticity flag */
(PID.TID 0000.0001)                   F
(PID.TID 0000.0001)     ;
(PID.TID 0000.0001) highOrderVorticity= /* V.I High order vort. advect. flag */
(PID.TID 0000.0001)                   F
(PID.TID 0000.0001)     ;
(PID.TID 0000.0001) upwindShear= /* V.I Upwind vertical Shear advection flag */
(PID.TID 0000.0001)                   F
(PID.TID 0000.0001)     ;
(PID.TID 0000.0001) selectKEscheme= /* V.I Kinetic Energy scheme selector */
(PID.TID 0000.0001)                       0
(PID.TID 0000.0001)     ;
(PID.TID 0000.0001) momForcing =  /* Momentum forcing on/off flag */
(PID.TID 0000.0001)                   T
(PID.TID 0000.0001)     ;
(PID.TID 0000.0001) momTidalForcing = /* Momentum Tidal forcing on/off flag */
(PID.TID 0000.0001)                   T
(PID.TID 0000.0001)     ;
(PID.TID 0000.0001) momPressureForcing =  /* Momentum pressure term on/off flag */
(PID.TID 0000.0001)                   T
(PID.TID 0000.0001)     ;
(PID.TID 0000.0001) implicitIntGravWave= /* Implicit Internal Gravity Wave flag */
(PID.TID 0000.0001)                   F
(PID.TID 0000.0001)     ;
(PID.TID 0000.0001) staggerTimeStep =    /* Stagger time stepping on/off flag */
(PID.TID 0000.0001)                   T
(PID.TID 0000.0001)     ;
(PID.TID 0000.0001) doResetHFactors = /* reset thickness factors @ each time-step */
(PID.TID 0000.0001)                   F
(PID.TID 0000.0001)     ;
(PID.TID 0000.0001) multiDimAdvection =  /* enable/disable Multi-Dim Advection */
(PID.TID 0000.0001)                   T
(PID.TID 0000.0001)     ;
(PID.TID 0000.0001) useMultiDimAdvec =   /* Multi-Dim Advection is/is-not used */
(PID.TID 0000.0001)                   T
(PID.TID 0000.0001)     ;
(PID.TID 0000.0001) implicitDiffusion = /* Implicit Diffusion on/off flag */
(PID.TID 0000.0001)                   T
(PID.TID 0000.0001)     ;
(PID.TID 0000.0001) tempStepping =  /* Temperature equation on/off flag */
(PID.TID 0000.0001)                   T
(PID.TID 0000.0001)     ;
(PID.TID 0000.0001) tempAdvection = /* Temperature advection on/off flag */
(PID.TID 0000.0001)                   T
(PID.TID 0000.0001)     ;
(PID.TID 0000.0001) tempImplVertAdv = /* Temp. implicit vert. advection on/off */
(PID.TID 0000.0001)                   F
(PID.TID 0000.0001)     ;
(PID.TID 0000.0001) tempForcing  =  /* Temperature forcing on/off flag */
(PID.TID 0000.0001)                   T
(PID.TID 0000.0001)     ;
(PID.TID 0000.0001) doThetaClimRelax = /* apply SST relaxation on/off flag */
(PID.TID 0000.0001)                   T
(PID.TID 0000.0001)     ;
(PID.TID 0000.0001) tempIsActiveTr = /* Temp. is a dynamically Active Tracer */
(PID.TID 0000.0001)                   T
(PID.TID 0000.0001)     ;
(PID.TID 0000.0001) saltStepping =  /* Salinity equation on/off flag */
(PID.TID 0000.0001)                   T
(PID.TID 0000.0001)     ;
(PID.TID 0000.0001) saltAdvection = /* Salinity advection on/off flag */
(PID.TID 0000.0001)                   T
(PID.TID 0000.0001)     ;
(PID.TID 0000.0001) saltImplVertAdv = /* Sali. implicit vert. advection on/off */
(PID.TID 0000.0001)                   F
(PID.TID 0000.0001)     ;
(PID.TID 0000.0001) saltForcing  =  /* Salinity forcing on/off flag */
(PID.TID 0000.0001)                   F
(PID.TID 0000.0001)     ;
(PID.TID 0000.0001) doSaltClimRelax = /* apply SSS relaxation on/off flag */
(PID.TID 0000.0001)                   F
(PID.TID 0000.0001)     ;
(PID.TID 0000.0001) saltIsActiveTr = /* Salt  is a dynamically Active Tracer */
(PID.TID 0000.0001)                   T
(PID.TID 0000.0001)     ;
(PID.TID 0000.0001)  readBinaryPrec = /* Precision used for reading binary files */
(PID.TID 0000.0001)                      32
(PID.TID 0000.0001)     ;
(PID.TID 0000.0001) writeBinaryPrec = /* Precision used for writing binary files */
(PID.TID 0000.0001)                      32
(PID.TID 0000.0001)     ;
(PID.TID 0000.0001)  rwSuffixType =   /* select format of mds file suffix */
(PID.TID 0000.0001)                       0
(PID.TID 0000.0001)    = 0 : myIter (I10.10) ;   = 1 : 100*myTime (100th sec) ;
(PID.TID 0000.0001)    = 2 : myTime (seconds);   = 3 : myTime/360 (10th of hr);
(PID.TID 0000.0001)    = 4 : myTime/3600 (hours)
(PID.TID 0000.0001)     ;
(PID.TID 0000.0001)  globalFiles = /* write "global" (=not per tile) files */
(PID.TID 0000.0001)                   F
(PID.TID 0000.0001)     ;
(PID.TID 0000.0001)  useSingleCpuIO = /* only master MPI process does I/O */
(PID.TID 0000.0001)                   T
(PID.TID 0000.0001)     ;
(PID.TID 0000.0001)  useSingleCpuInput = /* only master process reads input */
(PID.TID 0000.0001)                   T
(PID.TID 0000.0001)     ;
(PID.TID 0000.0001) /* debLev[*]  : level of debug & auxiliary message printing */
(PID.TID 0000.0001) debLevZero =  0 ; /* level of disabled aux. msg printing */
(PID.TID 0000.0001)    debLevA =  1 ; /* level of minimum  aux. msg printing */
(PID.TID 0000.0001)    debLevB =  2 ; /* level of low aux. print (report read-file opening)*/
(PID.TID 0000.0001)    debLevC =  3 ; /* level of moderate debug prt (most pkgs debug msg) */
(PID.TID 0000.0001)    debLevD =  4 ; /* level of enhanced debug prt (add DEBUG_STATS prt) */
(PID.TID 0000.0001)    debLevE =  5 ; /* level of extensive debug printing */
(PID.TID 0000.0001) debugLevel =  /* select debug printing level */
(PID.TID 0000.0001)                       0
(PID.TID 0000.0001)     ;
(PID.TID 0000.0001)  plotLevel =  /* select PLOT_FIELD printing level */
(PID.TID 0000.0001)                       0
(PID.TID 0000.0001)     ;
(PID.TID 0000.0001) //
(PID.TID 0000.0001) // Elliptic solver(s) paramters ( PARM02 in namelist )
(PID.TID 0000.0001) //
(PID.TID 0000.0001) cg2dMaxIters =   /* Upper limit on 2d con. grad iterations  */
(PID.TID 0000.0001)                     100
(PID.TID 0000.0001)     ;
(PID.TID 0000.0001) cg2dMinItersNSA =   /* Minimum number of iterations of 2d con. grad solver  */
(PID.TID 0000.0001)                       0
(PID.TID 0000.0001)     ;
(PID.TID 0000.0001) cg2dUseMinResSol= /* use cg2d last-iter(=0) / min-resid.(=1) solution */
(PID.TID 0000.0001)                       0
(PID.TID 0000.0001)     ;
(PID.TID 0000.0001) cg2dTargetResidual =   /* 2d con. grad target residual  */
(PID.TID 0000.0001)                 1.000000000000000E-05
(PID.TID 0000.0001)     ;
(PID.TID 0000.0001) cg2dTargetResWunit =   /* CG2d target residual [W units] */
(PID.TID 0000.0001)                -1.000000000000000E+00
(PID.TID 0000.0001)     ;
(PID.TID 0000.0001) cg2dPreCondFreq =   /* Freq. for updating cg2d preconditioner */
(PID.TID 0000.0001)                       1
(PID.TID 0000.0001)     ;
(PID.TID 0000.0001) useSRCGSolver =  /* use single reduction CG solver(s) */
(PID.TID 0000.0001)                   F
(PID.TID 0000.0001)     ;
(PID.TID 0000.0001) useNSACGSolver =  /* use not-self-adjoint CG solver */
(PID.TID 0000.0001)                   F
(PID.TID 0000.0001)     ;
(PID.TID 0000.0001) printResidualFreq = /* Freq. for printing CG residual */
(PID.TID 0000.0001)                       0
(PID.TID 0000.0001)     ;
(PID.TID 0000.0001) //
(PID.TID 0000.0001) // Time stepping paramters ( PARM03 in namelist )
(PID.TID 0000.0001) //
(PID.TID 0000.0001) deltaTMom =   /* Momentum equation timestep ( s ) */
(PID.TID 0000.0001)                 1.200000000000000E+03
(PID.TID 0000.0001)     ;
(PID.TID 0000.0001) deltaTFreeSurf = /* FreeSurface equation timestep ( s ) */
(PID.TID 0000.0001)                 1.200000000000000E+03
(PID.TID 0000.0001)     ;
(PID.TID 0000.0001) dTtracerLev =  /* Tracer equation timestep ( s ) */
(PID.TID 0000.0001)    31 @  1.200000000000000E+03              /* K =  1: 31 */
(PID.TID 0000.0001)     ;
(PID.TID 0000.0001) deltaTClock  =   /* Model clock timestep ( s ) */
(PID.TID 0000.0001)                 1.200000000000000E+03
(PID.TID 0000.0001)     ;
(PID.TID 0000.0001) cAdjFreq =   /* Convective adjustment interval ( s ) */
(PID.TID 0000.0001)                 0.000000000000000E+00
(PID.TID 0000.0001)     ;
(PID.TID 0000.0001) momForcingOutAB = /* =1: take Momentum Forcing out of Adams-Bash. stepping */
(PID.TID 0000.0001)                       0
(PID.TID 0000.0001)     ;
(PID.TID 0000.0001) tracForcingOutAB = /* =1: take T,S,pTr Forcing out of Adams-Bash. stepping */
(PID.TID 0000.0001)                       0
(PID.TID 0000.0001)     ;
(PID.TID 0000.0001) momDissip_In_AB = /* put Dissipation Tendency in Adams-Bash. stepping */
(PID.TID 0000.0001)                   T
(PID.TID 0000.0001)     ;
(PID.TID 0000.0001) doAB_onGtGs = /* apply AB on Tendencies (rather than on T,S)*/
(PID.TID 0000.0001)                   T
(PID.TID 0000.0001)     ;
(PID.TID 0000.0001) abEps =   /* Adams-Bashforth-2 stabilizing weight */
(PID.TID 0000.0001)                 1.000000000000000E-02
(PID.TID 0000.0001)     ;
(PID.TID 0000.0001) applyExchUV_early = /* Apply EXCH to U,V earlier in time-step */
(PID.TID 0000.0001)                   F
(PID.TID 0000.0001)     ;
(PID.TID 0000.0001) pickupStrictlyMatch= /* stop if pickup do not strictly match */
(PID.TID 0000.0001)                   T
(PID.TID 0000.0001)     ;
(PID.TID 0000.0001) nIter0   =   /* Run starting timestep number */
(PID.TID 0000.0001)                       0
(PID.TID 0000.0001)     ;
(PID.TID 0000.0001) nTimeSteps = /* Number of timesteps */
(PID.TID 0000.0001)                      15
(PID.TID 0000.0001)     ;
(PID.TID 0000.0001) nEndIter =   /* Run ending timestep number */
(PID.TID 0000.0001)                      15
(PID.TID 0000.0001)     ;
(PID.TID 0000.0001) baseTime =   /* Model base time ( s ) */
(PID.TID 0000.0001)                 0.000000000000000E+00
(PID.TID 0000.0001)     ;
(PID.TID 0000.0001) startTime =  /* Run start time ( s ) */
(PID.TID 0000.0001)                 0.000000000000000E+00
(PID.TID 0000.0001)     ;
(PID.TID 0000.0001) endTime  =   /* Integration ending time ( s ) */
(PID.TID 0000.0001)                 1.800000000000000E+04
(PID.TID 0000.0001)     ;
(PID.TID 0000.0001) pChkPtFreq = /* Permanent restart/pickup file interval ( s ) */
(PID.TID 0000.0001)                 6.220800000000000E+08
(PID.TID 0000.0001)     ;
(PID.TID 0000.0001) chkPtFreq  = /* Rolling restart/pickup file interval ( s ) */
(PID.TID 0000.0001)                 1.555200000000000E+08
(PID.TID 0000.0001)     ;
(PID.TID 0000.0001) pickup_write_mdsio =   /* Model IO flag. */
(PID.TID 0000.0001)                   T
(PID.TID 0000.0001)     ;
(PID.TID 0000.0001) pickup_read_mdsio =   /* Model IO flag. */
(PID.TID 0000.0001)                   T
(PID.TID 0000.0001)     ;
(PID.TID 0000.0001) writePickupAtEnd =   /* Model IO flag. */
(PID.TID 0000.0001)                   T
(PID.TID 0000.0001)     ;
(PID.TID 0000.0001) dumpFreq =   /* Model state write out interval ( s ). */
(PID.TID 0000.0001)                 0.000000000000000E+00
(PID.TID 0000.0001)     ;
(PID.TID 0000.0001) dumpInitAndLast= /* write out Initial & Last iter. model state */
(PID.TID 0000.0001)                   T
(PID.TID 0000.0001)     ;
(PID.TID 0000.0001) snapshot_mdsio =   /* Model IO flag. */
(PID.TID 0000.0001)                   T
(PID.TID 0000.0001)     ;
(PID.TID 0000.0001) monitorFreq =   /* Monitor output interval ( s ). */
(PID.TID 0000.0001)                 1.200000000000000E+03
(PID.TID 0000.0001)     ;
(PID.TID 0000.0001) monitorSelect = /* select group of variables to monitor */
(PID.TID 0000.0001)                       2
(PID.TID 0000.0001)     ;
(PID.TID 0000.0001) monitor_stdio =   /* Model IO flag. */
(PID.TID 0000.0001)                   T
(PID.TID 0000.0001)     ;
(PID.TID 0000.0001) externForcingPeriod =   /* forcing period (s) */
(PID.TID 0000.0001)                 0.000000000000000E+00
(PID.TID 0000.0001)     ;
(PID.TID 0000.0001) externForcingCycle =   /* period of the cyle (s). */
(PID.TID 0000.0001)                 0.000000000000000E+00
(PID.TID 0000.0001)     ;
(PID.TID 0000.0001) tauThetaClimRelax =   /* relaxation time scale (s) */
(PID.TID 0000.0001)                 2.592000000000000E+06
(PID.TID 0000.0001)     ;
(PID.TID 0000.0001) tauSaltClimRelax =   /* relaxation time scale (s) */
(PID.TID 0000.0001)                 0.000000000000000E+00
(PID.TID 0000.0001)     ;
(PID.TID 0000.0001) latBandClimRelax =   /* max. Lat. where relaxation */
(PID.TID 0000.0001)                 1.800000000000000E+02
(PID.TID 0000.0001)     ;
(PID.TID 0000.0001) //
(PID.TID 0000.0001) // Gridding paramters ( PARM04 in namelist )
(PID.TID 0000.0001) //
(PID.TID 0000.0001) usingCartesianGrid = /* Cartesian coordinates flag ( True/False ) */
(PID.TID 0000.0001)                   F
(PID.TID 0000.0001)     ;
(PID.TID 0000.0001) usingCylindricalGrid = /* Cylindrical coordinates flag ( True/False ) */
(PID.TID 0000.0001)                   F
(PID.TID 0000.0001)     ;
(PID.TID 0000.0001) usingSphericalPolarGrid = /* Spherical coordinates flag ( True/False ) */
(PID.TID 0000.0001)                   T
(PID.TID 0000.0001)     ;
(PID.TID 0000.0001) usingCurvilinearGrid = /* Curvilinear coordinates flag ( True/False ) */
(PID.TID 0000.0001)                   F
(PID.TID 0000.0001)     ;
(PID.TID 0000.0001) useMin4hFacEdges = /* set hFacW,S as minimum of adjacent hFacC factor */
(PID.TID 0000.0001)                   F
(PID.TID 0000.0001)     ;
(PID.TID 0000.0001) interViscAr_pCell = /* account for partial-cell in interior vert. viscosity */
(PID.TID 0000.0001)                   F
(PID.TID 0000.0001)     ;
(PID.TID 0000.0001) interDiffKr_pCell = /* account for partial-cell in interior vert. diffusion */
(PID.TID 0000.0001)                   F
(PID.TID 0000.0001)     ;
(PID.TID 0000.0001) pCellMix_select = /* option to enhance mixing near surface & bottom */
(PID.TID 0000.0001)                       0
(PID.TID 0000.0001)     ;
(PID.TID 0000.0001) selectSigmaCoord = /* Hybrid-Sigma Vert. Coordinate option */
(PID.TID 0000.0001)                       0
(PID.TID 0000.0001)     ;
(PID.TID 0000.0001) rSigmaBnd = /* r/sigma transition ( units of r ==  m ) */
(PID.TID 0000.0001)                 1.234567000000000E+05
(PID.TID 0000.0001)     ;
(PID.TID 0000.0001) rkSign =   /* index orientation relative to vertical coordinate */
(PID.TID 0000.0001)                -1.000000000000000E+00
(PID.TID 0000.0001)     ;
(PID.TID 0000.0001) gravitySign = /* gravity orientation relative to vertical coordinate */
(PID.TID 0000.0001)                -1.000000000000000E+00
(PID.TID 0000.0001)     ;
(PID.TID 0000.0001) seaLev_Z =  /* reference height of sea-level [m] */
(PID.TID 0000.0001)                 0.000000000000000E+00
(PID.TID 0000.0001)     ;
(PID.TID 0000.0001) top_Pres =  /* reference pressure at the top [Pa] */
(PID.TID 0000.0001)                 0.000000000000000E+00
(PID.TID 0000.0001)     ;
(PID.TID 0000.0001) mass2rUnit = /* convert mass per unit area [kg/m2] to r-units [m] */
(PID.TID 0000.0001)                 9.732360097323601E-04
(PID.TID 0000.0001)     ;
(PID.TID 0000.0001) rUnit2mass = /* convert r-units [m] to mass per unit area [kg/m2] */
(PID.TID 0000.0001)                 1.027500000000000E+03
(PID.TID 0000.0001)     ;
(PID.TID 0000.0001) drC =   /* C spacing ( units of r ) */
(PID.TID 0000.0001)                 5.000000000000000E+00,      /* K =  1 */
(PID.TID 0000.0001)                 1.066500000000000E+01,      /* K =  2 */
(PID.TID 0000.0001)                 1.208000000000000E+01,      /* K =  3 */
(PID.TID 0000.0001)                 1.368000000000000E+01,      /* K =  4 */
(PID.TID 0000.0001)                 1.549000000000000E+01,      /* K =  5 */
(PID.TID 0000.0001)                 1.754000000000000E+01,      /* K =  6 */
(PID.TID 0000.0001)                 1.986500000000000E+01,      /* K =  7 */
(PID.TID 0000.0001)                 2.250000000000000E+01,      /* K =  8 */
(PID.TID 0000.0001)                 2.548500000000000E+01,      /* K =  9 */
(PID.TID 0000.0001)                 2.886000000000000E+01,      /* K = 10 */
(PID.TID 0000.0001)                 3.268500000000000E+01,      /* K = 11 */
(PID.TID 0000.0001)                 3.702000000000000E+01,      /* K = 12 */
(PID.TID 0000.0001)                 4.192500000000000E+01,      /* K = 13 */
(PID.TID 0000.0001)                 4.748000000000000E+01,      /* K = 14 */
(PID.TID 0000.0001)                 5.377500000000000E+01,      /* K = 15 */
(PID.TID 0000.0001)                 6.090500000000000E+01,      /* K = 16 */
(PID.TID 0000.0001)                 6.897499999999999E+01,      /* K = 17 */
(PID.TID 0000.0001)                 7.811500000000001E+01,      /* K = 18 */
(PID.TID 0000.0001)                 8.847000000000000E+01,      /* K = 19 */
(PID.TID 0000.0001)                 1.001950000000000E+02,      /* K = 20 */
(PID.TID 0000.0001)                 1.134750000000000E+02,      /* K = 21 */
(PID.TID 0000.0001)                 1.285150000000000E+02,      /* K = 22 */
(PID.TID 0000.0001)                 1.455450000000000E+02,      /* K = 23 */
(PID.TID 0000.0001)                 1.648350000000000E+02,      /* K = 24 */
(PID.TID 0000.0001)                 1.866850000000000E+02,      /* K = 25 */
(PID.TID 0000.0001)                 2.114300000000000E+02,      /* K = 26 */
(PID.TID 0000.0001)                 2.394550000000000E+02,      /* K = 27 */
(PID.TID 0000.0001)                 2.711950000000000E+02,      /* K = 28 */
(PID.TID 0000.0001)                 3.071400000000000E+02,      /* K = 29 */
(PID.TID 0000.0001)                 3.478500000000000E+02,      /* K = 30 */
(PID.TID 0000.0001)                 3.939500000000000E+02,      /* K = 31 */
(PID.TID 0000.0001)                 2.092150000000000E+02       /* K = 32 */
(PID.TID 0000.0001)     ;
(PID.TID 0000.0001) drF =   /* W spacing ( units of r ) */
(PID.TID 0000.0001)                 1.000000000000000E+01,      /* K =  1 */
(PID.TID 0000.0001)                 1.133000000000000E+01,      /* K =  2 */
(PID.TID 0000.0001)                 1.283000000000000E+01,      /* K =  3 */
(PID.TID 0000.0001)                 1.453000000000000E+01,      /* K =  4 */
(PID.TID 0000.0001)                 1.645000000000000E+01,      /* K =  5 */
(PID.TID 0000.0001)                 1.863000000000000E+01,      /* K =  6 */
(PID.TID 0000.0001)                 2.110000000000000E+01,      /* K =  7 */
(PID.TID 0000.0001)                 2.390000000000000E+01,      /* K =  8 */
(PID.TID 0000.0001)                 2.707000000000000E+01,      /* K =  9 */
(PID.TID 0000.0001)                 3.065000000000000E+01,      /* K = 10 */
(PID.TID 0000.0001)                 3.472000000000000E+01,      /* K = 11 */
(PID.TID 0000.0001)                 3.932000000000000E+01,      /* K = 12 */
(PID.TID 0000.0001)                 4.453000000000000E+01,      /* K = 13 */
(PID.TID 0000.0001)                 5.043000000000000E+01,      /* K = 14 */
(PID.TID 0000.0001)                 5.712000000000000E+01,      /* K = 15 */
(PID.TID 0000.0001)                 6.469000000000000E+01,      /* K = 16 */
(PID.TID 0000.0001)                 7.326000000000001E+01,      /* K = 17 */
(PID.TID 0000.0001)                 8.297000000000000E+01,      /* K = 18 */
(PID.TID 0000.0001)                 9.397000000000000E+01,      /* K = 19 */
(PID.TID 0000.0001)                 1.064200000000000E+02,      /* K = 20 */
(PID.TID 0000.0001)                 1.205300000000000E+02,      /* K = 21 */
(PID.TID 0000.0001)                 1.365000000000000E+02,      /* K = 22 */
(PID.TID 0000.0001)                 1.545900000000000E+02,      /* K = 23 */
(PID.TID 0000.0001)                 1.750800000000000E+02,      /* K = 24 */
(PID.TID 0000.0001)                 1.982900000000000E+02,      /* K = 25 */
(PID.TID 0000.0001)                 2.245700000000000E+02,      /* K = 26 */
(PID.TID 0000.0001)                 2.543400000000000E+02,      /* K = 27 */
(PID.TID 0000.0001)                 2.880500000000000E+02,      /* K = 28 */
(PID.TID 0000.0001)                 3.262300000000000E+02,      /* K = 29 */
(PID.TID 0000.0001)                 3.694700000000000E+02,      /* K = 30 */
(PID.TID 0000.0001)                 4.184300000000000E+02       /* K = 31 */
(PID.TID 0000.0001)     ;
(PID.TID 0000.0001) delX = /* U spacing ( m - cartesian, degrees - spherical ) */
(PID.TID 0000.0001)    62 @  1.000000000000000E+00              /* I =  1: 62 */
(PID.TID 0000.0001)     ;
(PID.TID 0000.0001) delY = /* V spacing ( m - cartesian, degrees - spherical ) */
(PID.TID 0000.0001)    62 @  1.000000000000000E+00              /* J =  1: 62 */
(PID.TID 0000.0001)     ;
(PID.TID 0000.0001) xgOrigin = /* X-axis origin of West  edge (cartesian: m, lat-lon: deg) */
(PID.TID 0000.0001)                -1.000000000000000E+00
(PID.TID 0000.0001)     ;
(PID.TID 0000.0001) ygOrigin = /* Y-axis origin of South edge (cartesian: m, lat-lon: deg) */
(PID.TID 0000.0001)                 1.400000000000000E+01
(PID.TID 0000.0001)     ;
(PID.TID 0000.0001) rSphere =  /* Radius ( ignored - cartesian, m - spherical ) */
(PID.TID 0000.0001)                 6.370000000000000E+06
(PID.TID 0000.0001)     ;
(PID.TID 0000.0001) deepAtmosphere = /* Deep/Shallow Atmosphere flag (True/False) */
(PID.TID 0000.0001)                   F
(PID.TID 0000.0001)     ;
(PID.TID 0000.0001) xC =  /* xC(:,1,:,1) : P-point X coord ( deg. or m if cartesian) */
(PID.TID 0000.0001)                -5.000000000000000E-01,      /* I =  1 */
(PID.TID 0000.0001)                 5.000000000000000E-01,      /* I =  2 */
(PID.TID 0000.0001)                 1.500000000000000E+00,      /* I =  3 */
(PID.TID 0000.0001)                 2.500000000000000E+00,      /* I =  4 */
(PID.TID 0000.0001)                 3.500000000000000E+00,      /* I =  5 */
(PID.TID 0000.0001)                 4.500000000000000E+00,      /* I =  6 */
(PID.TID 0000.0001)                 5.500000000000000E+00,      /* I =  7 */
(PID.TID 0000.0001)                 6.500000000000000E+00,      /* I =  8 */
(PID.TID 0000.0001)                 7.500000000000000E+00,      /* I =  9 */
(PID.TID 0000.0001)                 8.500000000000000E+00,      /* I = 10 */
(PID.TID 0000.0001)                 9.500000000000000E+00,      /* I = 11 */
(PID.TID 0000.0001)                 1.050000000000000E+01,      /* I = 12 */
(PID.TID 0000.0001)                 1.150000000000000E+01,      /* I = 13 */
(PID.TID 0000.0001)                 1.250000000000000E+01,      /* I = 14 */
(PID.TID 0000.0001)                 1.350000000000000E+01,      /* I = 15 */
(PID.TID 0000.0001)                 1.450000000000000E+01,      /* I = 16 */
(PID.TID 0000.0001)                 1.550000000000000E+01,      /* I = 17 */
(PID.TID 0000.0001)                 1.650000000000000E+01,      /* I = 18 */
(PID.TID 0000.0001)                 1.750000000000000E+01,      /* I = 19 */
(PID.TID 0000.0001)                 1.850000000000000E+01,      /* I = 20 */
(PID.TID 0000.0001)                 1.950000000000000E+01,      /* I = 21 */
(PID.TID 0000.0001)                 2.050000000000000E+01,      /* I = 22 */
(PID.TID 0000.0001)                 2.150000000000000E+01,      /* I = 23 */
(PID.TID 0000.0001)                 2.250000000000000E+01,      /* I = 24 */
(PID.TID 0000.0001)                 2.350000000000000E+01,      /* I = 25 */
(PID.TID 0000.0001)                 2.450000000000000E+01,      /* I = 26 */
(PID.TID 0000.0001)                 2.550000000000000E+01,      /* I = 27 */
(PID.TID 0000.0001)                 2.650000000000000E+01,      /* I = 28 */
(PID.TID 0000.0001)                 2.750000000000000E+01,      /* I = 29 */
(PID.TID 0000.0001)                 2.850000000000000E+01,      /* I = 30 */
(PID.TID 0000.0001)                 2.950000000000000E+01,      /* I = 31 */
(PID.TID 0000.0001)                 3.050000000000000E+01,      /* I = 32 */
(PID.TID 0000.0001)                 3.150000000000000E+01,      /* I = 33 */
(PID.TID 0000.0001)                 3.250000000000000E+01,      /* I = 34 */
(PID.TID 0000.0001)                 3.350000000000000E+01,      /* I = 35 */
(PID.TID 0000.0001)                 3.450000000000000E+01,      /* I = 36 */
(PID.TID 0000.0001)                 3.550000000000000E+01,      /* I = 37 */
(PID.TID 0000.0001)                 3.650000000000000E+01,      /* I = 38 */
(PID.TID 0000.0001)                 3.750000000000000E+01,      /* I = 39 */
(PID.TID 0000.0001)                 3.850000000000000E+01,      /* I = 40 */
(PID.TID 0000.0001)                 3.950000000000000E+01,      /* I = 41 */
(PID.TID 0000.0001)                 4.050000000000000E+01,      /* I = 42 */
(PID.TID 0000.0001)                 4.150000000000000E+01,      /* I = 43 */
(PID.TID 0000.0001)                 4.250000000000000E+01,      /* I = 44 */
(PID.TID 0000.0001)                 4.350000000000000E+01,      /* I = 45 */
(PID.TID 0000.0001)                 4.450000000000000E+01,      /* I = 46 */
(PID.TID 0000.0001)                 4.550000000000000E+01,      /* I = 47 */
(PID.TID 0000.0001)                 4.650000000000000E+01,      /* I = 48 */
(PID.TID 0000.0001)                 4.750000000000000E+01,      /* I = 49 */
(PID.TID 0000.0001)                 4.850000000000000E+01,      /* I = 50 */
(PID.TID 0000.0001)                 4.950000000000000E+01,      /* I = 51 */
(PID.TID 0000.0001)                 5.050000000000000E+01,      /* I = 52 */
(PID.TID 0000.0001)                 5.150000000000000E+01,      /* I = 53 */
(PID.TID 0000.0001)                 5.250000000000000E+01,      /* I = 54 */
(PID.TID 0000.0001)                 5.350000000000000E+01,      /* I = 55 */
(PID.TID 0000.0001)                 5.450000000000000E+01,      /* I = 56 */
(PID.TID 0000.0001)                 5.550000000000000E+01,      /* I = 57 */
(PID.TID 0000.0001)                 5.650000000000000E+01,      /* I = 58 */
(PID.TID 0000.0001)                 5.750000000000000E+01,      /* I = 59 */
(PID.TID 0000.0001)                 5.850000000000000E+01,      /* I = 60 */
(PID.TID 0000.0001)                 5.950000000000000E+01,      /* I = 61 */
(PID.TID 0000.0001)                 6.050000000000000E+01       /* I = 62 */
(PID.TID 0000.0001)     ;
(PID.TID 0000.0001) yC =  /* yC(1,:,1,:) : P-point Y coord ( deg. or m if cartesian) */
(PID.TID 0000.0001)                 1.450000000000000E+01,      /* J =  1 */
(PID.TID 0000.0001)                 1.550000000000000E+01,      /* J =  2 */
(PID.TID 0000.0001)                 1.650000000000000E+01,      /* J =  3 */
(PID.TID 0000.0001)                 1.750000000000000E+01,      /* J =  4 */
(PID.TID 0000.0001)                 1.850000000000000E+01,      /* J =  5 */
(PID.TID 0000.0001)                 1.950000000000000E+01,      /* J =  6 */
(PID.TID 0000.0001)                 2.050000000000000E+01,      /* J =  7 */
(PID.TID 0000.0001)                 2.150000000000000E+01,      /* J =  8 */
(PID.TID 0000.0001)                 2.250000000000000E+01,      /* J =  9 */
(PID.TID 0000.0001)                 2.350000000000000E+01,      /* J = 10 */
(PID.TID 0000.0001)                 2.450000000000000E+01,      /* J = 11 */
(PID.TID 0000.0001)                 2.550000000000000E+01,      /* J = 12 */
(PID.TID 0000.0001)                 2.650000000000000E+01,      /* J = 13 */
(PID.TID 0000.0001)                 2.750000000000000E+01,      /* J = 14 */
(PID.TID 0000.0001)                 2.850000000000000E+01,      /* J = 15 */
(PID.TID 0000.0001)                 2.950000000000000E+01,      /* J = 16 */
(PID.TID 0000.0001)                 3.050000000000000E+01,      /* J = 17 */
(PID.TID 0000.0001)                 3.150000000000000E+01,      /* J = 18 */
(PID.TID 0000.0001)                 3.250000000000000E+01,      /* J = 19 */
(PID.TID 0000.0001)                 3.350000000000000E+01,      /* J = 20 */
(PID.TID 0000.0001)                 3.450000000000000E+01,      /* J = 21 */
(PID.TID 0000.0001)                 3.550000000000000E+01,      /* J = 22 */
(PID.TID 0000.0001)                 3.650000000000000E+01,      /* J = 23 */
(PID.TID 0000.0001)                 3.750000000000000E+01,      /* J = 24 */
(PID.TID 0000.0001)                 3.850000000000000E+01,      /* J = 25 */
(PID.TID 0000.0001)                 3.950000000000000E+01,      /* J = 26 */
(PID.TID 0000.0001)                 4.050000000000000E+01,      /* J = 27 */
(PID.TID 0000.0001)                 4.150000000000000E+01,      /* J = 28 */
(PID.TID 0000.0001)                 4.250000000000000E+01,      /* J = 29 */
(PID.TID 0000.0001)                 4.350000000000000E+01,      /* J = 30 */
(PID.TID 0000.0001)                 4.450000000000000E+01,      /* J = 31 */
(PID.TID 0000.0001)                 4.550000000000000E+01,      /* J = 32 */
(PID.TID 0000.0001)                 4.650000000000000E+01,      /* J = 33 */
(PID.TID 0000.0001)                 4.750000000000000E+01,      /* J = 34 */
(PID.TID 0000.0001)                 4.850000000000000E+01,      /* J = 35 */
(PID.TID 0000.0001)                 4.950000000000000E+01,      /* J = 36 */
(PID.TID 0000.0001)                 5.050000000000000E+01,      /* J = 37 */
(PID.TID 0000.0001)                 5.150000000000000E+01,      /* J = 38 */
(PID.TID 0000.0001)                 5.250000000000000E+01,      /* J = 39 */
(PID.TID 0000.0001)                 5.350000000000000E+01,      /* J = 40 */
(PID.TID 0000.0001)                 5.450000000000000E+01,      /* J = 41 */
(PID.TID 0000.0001)                 5.550000000000000E+01,      /* J = 42 */
(PID.TID 0000.0001)                 5.650000000000000E+01,      /* J = 43 */
(PID.TID 0000.0001)                 5.750000000000000E+01,      /* J = 44 */
(PID.TID 0000.0001)                 5.850000000000000E+01,      /* J = 45 */
(PID.TID 0000.0001)                 5.950000000000000E+01,      /* J = 46 */
(PID.TID 0000.0001)                 6.050000000000000E+01,      /* J = 47 */
(PID.TID 0000.0001)                 6.150000000000000E+01,      /* J = 48 */
(PID.TID 0000.0001)                 6.250000000000000E+01,      /* J = 49 */
(PID.TID 0000.0001)                 6.350000000000000E+01,      /* J = 50 */
(PID.TID 0000.0001)                 6.450000000000000E+01,      /* J = 51 */
(PID.TID 0000.0001)                 6.550000000000000E+01,      /* J = 52 */
(PID.TID 0000.0001)                 6.650000000000000E+01,      /* J = 53 */
(PID.TID 0000.0001)                 6.750000000000000E+01,      /* J = 54 */
(PID.TID 0000.0001)                 6.850000000000000E+01,      /* J = 55 */
(PID.TID 0000.0001)                 6.950000000000000E+01,      /* J = 56 */
(PID.TID 0000.0001)                 7.050000000000000E+01,      /* J = 57 */
(PID.TID 0000.0001)                 7.150000000000000E+01,      /* J = 58 */
(PID.TID 0000.0001)                 7.250000000000000E+01,      /* J = 59 */
(PID.TID 0000.0001)                 7.350000000000000E+01,      /* J = 60 */
(PID.TID 0000.0001)                 7.450000000000000E+01,      /* J = 61 */
(PID.TID 0000.0001)                 7.550000000000000E+01       /* J = 62 */
(PID.TID 0000.0001)     ;
(PID.TID 0000.0001) rcoord = /* P-point R coordinate (  units of r ) */
(PID.TID 0000.0001)                -5.000000000000000E+00,      /* K =  1 */
(PID.TID 0000.0001)                -1.566500000000000E+01,      /* K =  2 */
(PID.TID 0000.0001)                -2.774500000000000E+01,      /* K =  3 */
(PID.TID 0000.0001)                -4.142500000000000E+01,      /* K =  4 */
(PID.TID 0000.0001)                -5.691499999999999E+01,      /* K =  5 */
(PID.TID 0000.0001)                -7.445499999999998E+01,      /* K =  6 */
(PID.TID 0000.0001)                -9.431999999999999E+01,      /* K =  7 */
(PID.TID 0000.0001)                -1.168200000000000E+02,      /* K =  8 */
(PID.TID 0000.0001)                -1.423050000000000E+02,      /* K =  9 */
(PID.TID 0000.0001)                -1.711650000000000E+02,      /* K = 10 */
(PID.TID 0000.0001)                -2.038500000000000E+02,      /* K = 11 */
(PID.TID 0000.0001)                -2.408700000000000E+02,      /* K = 12 */
(PID.TID 0000.0001)                -2.827950000000000E+02,      /* K = 13 */
(PID.TID 0000.0001)                -3.302750000000000E+02,      /* K = 14 */
(PID.TID 0000.0001)                -3.840500000000000E+02,      /* K = 15 */
(PID.TID 0000.0001)                -4.449550000000000E+02,      /* K = 16 */
(PID.TID 0000.0001)                -5.139300000000001E+02,      /* K = 17 */
(PID.TID 0000.0001)                -5.920450000000001E+02,      /* K = 18 */
(PID.TID 0000.0001)                -6.805150000000001E+02,      /* K = 19 */
(PID.TID 0000.0001)                -7.807100000000000E+02,      /* K = 20 */
(PID.TID 0000.0001)                -8.941850000000001E+02,      /* K = 21 */
(PID.TID 0000.0001)                -1.022700000000000E+03,      /* K = 22 */
(PID.TID 0000.0001)                -1.168245000000000E+03,      /* K = 23 */
(PID.TID 0000.0001)                -1.333080000000000E+03,      /* K = 24 */
(PID.TID 0000.0001)                -1.519765000000000E+03,      /* K = 25 */
(PID.TID 0000.0001)                -1.731195000000000E+03,      /* K = 26 */
(PID.TID 0000.0001)                -1.970650000000000E+03,      /* K = 27 */
(PID.TID 0000.0001)                -2.241845000000000E+03,      /* K = 28 */
(PID.TID 0000.0001)                -2.548985000000000E+03,      /* K = 29 */
(PID.TID 0000.0001)                -2.896835000000000E+03,      /* K = 30 */
(PID.TID 0000.0001)                -3.290785000000000E+03       /* K = 31 */
(PID.TID 0000.0001)     ;
(PID.TID 0000.0001) rF =   /* W-Interf. R coordinate (  units of r ) */
(PID.TID 0000.0001)                 0.000000000000000E+00,      /* K =  1 */
(PID.TID 0000.0001)                -1.000000000000000E+01,      /* K =  2 */
(PID.TID 0000.0001)                -2.133000000000000E+01,      /* K =  3 */
(PID.TID 0000.0001)                -3.416000000000000E+01,      /* K =  4 */
(PID.TID 0000.0001)                -4.869000000000000E+01,      /* K =  5 */
(PID.TID 0000.0001)                -6.514000000000000E+01,      /* K =  6 */
(PID.TID 0000.0001)                -8.377000000000000E+01,      /* K =  7 */
(PID.TID 0000.0001)                -1.048700000000000E+02,      /* K =  8 */
(PID.TID 0000.0001)                -1.287700000000000E+02,      /* K =  9 */
(PID.TID 0000.0001)                -1.558400000000000E+02,      /* K = 10 */
(PID.TID 0000.0001)                -1.864900000000000E+02,      /* K = 11 */
(PID.TID 0000.0001)                -2.212100000000000E+02,      /* K = 12 */
(PID.TID 0000.0001)                -2.605300000000000E+02,      /* K = 13 */
(PID.TID 0000.0001)                -3.050600000000001E+02,      /* K = 14 */
(PID.TID 0000.0001)                -3.554900000000001E+02,      /* K = 15 */
(PID.TID 0000.0001)                -4.126100000000001E+02,      /* K = 16 */
(PID.TID 0000.0001)                -4.773000000000001E+02,      /* K = 17 */
(PID.TID 0000.0001)                -5.505600000000001E+02,      /* K = 18 */
(PID.TID 0000.0001)                -6.335300000000001E+02,      /* K = 19 */
(PID.TID 0000.0001)                -7.275000000000001E+02,      /* K = 20 */
(PID.TID 0000.0001)                -8.339200000000001E+02,      /* K = 21 */
(PID.TID 0000.0001)                -9.544500000000000E+02,      /* K = 22 */
(PID.TID 0000.0001)                -1.090950000000000E+03,      /* K = 23 */
(PID.TID 0000.0001)                -1.245540000000000E+03,      /* K = 24 */
(PID.TID 0000.0001)                -1.420620000000000E+03,      /* K = 25 */
(PID.TID 0000.0001)                -1.618910000000000E+03,      /* K = 26 */
(PID.TID 0000.0001)                -1.843480000000000E+03,      /* K = 27 */
(PID.TID 0000.0001)                -2.097820000000000E+03,      /* K = 28 */
(PID.TID 0000.0001)                -2.385870000000000E+03,      /* K = 29 */
(PID.TID 0000.0001)                -2.712100000000000E+03,      /* K = 30 */
(PID.TID 0000.0001)                -3.081570000000000E+03,      /* K = 31 */
(PID.TID 0000.0001)                -3.500000000000000E+03       /* K = 32 */
(PID.TID 0000.0001)     ;
(PID.TID 0000.0001) deepFacC = /* deep-model grid factor @ cell-Center (-) */
(PID.TID 0000.0001)    31 @  1.000000000000000E+00              /* K =  1: 31 */
(PID.TID 0000.0001)     ;
(PID.TID 0000.0001) deepFacF = /* deep-model grid factor @ W-Interface (-) */
(PID.TID 0000.0001)    32 @  1.000000000000000E+00              /* K =  1: 32 */
(PID.TID 0000.0001)     ;
(PID.TID 0000.0001) rotateGrid = /* use rotated grid ( True/False ) */
(PID.TID 0000.0001)                   F
(PID.TID 0000.0001)     ;
(PID.TID 0000.0001) phiEuler = /* Euler angle, rotation about original z-coordinate [rad] */
(PID.TID 0000.0001)                 0.000000000000000E+00
(PID.TID 0000.0001)     ;
(PID.TID 0000.0001) thetaEuler = /* Euler angle, rotation about new x-coordinate [rad] */
(PID.TID 0000.0001)                 0.000000000000000E+00
(PID.TID 0000.0001)     ;
(PID.TID 0000.0001) psiEuler = /* Euler angle, rotation about new z-coordinate [rad] */
(PID.TID 0000.0001)                 0.000000000000000E+00
(PID.TID 0000.0001)     ;
(PID.TID 0000.0001) dxF =  /* dxF(:,1,:,1) ( units: m ) */
(PID.TID 0000.0001)    62 @  1.076362084889763E+05              /* I =  1: 62 */
(PID.TID 0000.0001)     ;
(PID.TID 0000.0001) dxF =  /* dxF(1,:,1,:) ( units: m ) */
(PID.TID 0000.0001)                 1.076362084889763E+05,      /* J =  1 */
(PID.TID 0000.0001)                 1.071339990328148E+05,      /* J =  2 */
(PID.TID 0000.0001)                 1.065991555227175E+05,      /* J =  3 */
(PID.TID 0000.0001)                 1.060318408771987E+05,      /* J =  4 */
(PID.TID 0000.0001)                 1.054322279057952E+05,      /* J =  5 */
(PID.TID 0000.0001)                 1.048004992564268E+05,      /* J =  6 */
(PID.TID 0000.0001)                 1.041368473597596E+05,      /* J =  7 */
(PID.TID 0000.0001)                 1.034414743705903E+05,      /* J =  8 */
(PID.TID 0000.0001)                 1.027145921062676E+05,      /* J =  9 */
(PID.TID 0000.0001)                 1.019564219821708E+05,      /* J = 10 */
(PID.TID 0000.0001)                 1.011671949442642E+05,      /* J = 11 */
(PID.TID 0000.0001)                 1.003471513987490E+05,      /* J = 12 */
(PID.TID 0000.0001)                 9.949654113883297E+04,      /* J = 13 */
(PID.TID 0000.0001)                 9.861562326864146E+04,      /* J = 14 */
(PID.TID 0000.0001)                 9.770466612429130E+04,      /* J = 15 */
(PID.TID 0000.0001)                 9.676394719215337E+04,      /* J = 16 */
(PID.TID 0000.0001)                 9.579375302432729E+04,      /* J = 17 */
(PID.TID 0000.0001)                 9.479437915135507E+04,      /* J = 18 */
(PID.TID 0000.0001)                 9.376612999219958E+04,      /* J = 19 */
(PID.TID 0000.0001)                 9.270931876151556E+04,      /* J = 20 */
(PID.TID 0000.0001)                 9.162426737424145E+04,      /* J = 21 */
(PID.TID 0000.0001)                 9.051130634754094E+04,      /* J = 22 */
(PID.TID 0000.0001)                 8.937077470012424E+04,      /* J = 23 */
(PID.TID 0000.0001)                 8.820301984897976E+04,      /* J = 24 */
(PID.TID 0000.0001)                 8.700839750354746E+04,      /* J = 25 */
(PID.TID 0000.0001)                 8.578727155736629E+04,      /* J = 26 */
(PID.TID 0000.0001)                 8.454001397722879E+04,      /* J = 27 */
(PID.TID 0000.0001)                 8.326700468987631E+04,      /* J = 28 */
(PID.TID 0000.0001)                 8.196863146626971E+04,      /* J = 29 */
(PID.TID 0000.0001)                 8.064528980347053E+04,      /* J = 30 */
(PID.TID 0000.0001)                 7.929738280416874E+04,      /* J = 31 */
(PID.TID 0000.0001)                 7.792532105389380E+04,      /* J = 32 */
(PID.TID 0000.0001)                 7.652952249594631E+04,      /* J = 33 */
(PID.TID 0000.0001)                 7.511041230408842E+04,      /* J = 34 */
(PID.TID 0000.0001)                 7.366842275303182E+04,      /* J = 35 */
(PID.TID 0000.0001)                 7.220399308676260E+04,      /* J = 36 */
(PID.TID 0000.0001)                 7.071756938474336E+04,      /* J = 37 */
(PID.TID 0000.0001)                 6.920960442603305E+04,      /* J = 38 */
(PID.TID 0000.0001)                 6.768055755136609E+04,      /* J = 39 */
(PID.TID 0000.0001)                 6.613089452323270E+04,      /* J = 40 */
(PID.TID 0000.0001)                 6.456108738400316E+04,      /* J = 41 */
(PID.TID 0000.0001)                 6.297161431213917E+04,      /* J = 42 */
(PID.TID 0000.0001)                 6.136295947653597E+04,      /* J = 43 */
(PID.TID 0000.0001)                 5.973561288903989E+04,      /* J = 44 */
(PID.TID 0000.0001)                 5.809007025518592E+04,      /* J = 45 */
(PID.TID 0000.0001)                 5.642683282320108E+04,      /* J = 46 */
(PID.TID 0000.0001)                 5.474640723131929E+04,      /* J = 47 */
(PID.TID 0000.0001)                 5.304930535345447E+04,      /* J = 48 */
(PID.TID 0000.0001)                 5.133604414327884E+04,      /* J = 49 */
(PID.TID 0000.0001)                 4.960714547675374E+04,      /* J = 50 */
(PID.TID 0000.0001)                 4.786313599316124E+04,      /* J = 51 */
(PID.TID 0000.0001)                 4.610454693468459E+04,      /* J = 52 */
(PID.TID 0000.0001)                 4.433191398458685E+04,      /* J = 53 */
(PID.TID 0000.0001)                 4.254577710403652E+04,      /* J = 54 */
(PID.TID 0000.0001)                 4.074668036763009E+04,      /* J = 55 */
(PID.TID 0000.0001)                 3.893517179766173E+04,      /* J = 56 */
(PID.TID 0000.0001)                 3.711180319719033E+04,      /* J = 57 */
(PID.TID 0000.0001)                 3.527712998195496E+04,      /* J = 58 */
(PID.TID 0000.0001)                 3.343171101118984E+04,      /* J = 59 */
(PID.TID 0000.0001)                 3.157610841739049E+04,      /* J = 60 */
(PID.TID 0000.0001)                 2.971088743508254E+04,      /* J = 61 */
(PID.TID 0000.0001)                 2.783661622864603E+04       /* J = 62 */
(PID.TID 0000.0001)     ;
(PID.TID 0000.0001) dyF =  /* dyF(:,1,:,1) ( units: m ) */
(PID.TID 0000.0001)    62 @  1.111774733520388E+05              /* I =  1: 62 */
(PID.TID 0000.0001)     ;
(PID.TID 0000.0001) dyF =  /* dyF(1,:,1,:) ( units: m ) */
(PID.TID 0000.0001)    62 @  1.111774733520388E+05              /* J =  1: 62 */
(PID.TID 0000.0001)     ;
(PID.TID 0000.0001) dxG =  /* dxG(:,1,:,1) ( units: m ) */
(PID.TID 0000.0001)    62 @  1.078750272516468E+05              /* I =  1: 62 */
(PID.TID 0000.0001)     ;
(PID.TID 0000.0001) dxG =  /* dxG(1,:,1,:) ( units: m ) */
(PID.TID 0000.0001)                 1.078750272516468E+05,      /* J =  1 */
(PID.TID 0000.0001)                 1.073891928122990E+05,      /* J =  2 */
(PID.TID 0000.0001)                 1.068706465845181E+05,      /* J =  3 */
(PID.TID 0000.0001)                 1.063195465225083E+05,      /* J =  4 */
(PID.TID 0000.0001)                 1.057360604966873E+05,      /* J =  5 */
(PID.TID 0000.0001)                 1.051203662425507E+05,      /* J =  6 */
(PID.TID 0000.0001)                 1.044726513065328E+05,      /* J =  7 */
(PID.TID 0000.0001)                 1.037931129888776E+05,      /* J =  8 */
(PID.TID 0000.0001)                 1.030819582835396E+05,      /* J =  9 */
(PID.TID 0000.0001)                 1.023394038151311E+05,      /* J = 10 */
(PID.TID 0000.0001)                 1.015656757729363E+05,      /* J = 11 */
(PID.TID 0000.0001)                 1.007610098420124E+05,      /* J = 12 */
(PID.TID 0000.0001)                 9.992565113139673E+04,      /* J = 13 */
(PID.TID 0000.0001)                 9.905985409944496E+04,      /* J = 14 */
(PID.TID 0000.0001)                 9.816388247632013E+04,      /* J = 15 */
(PID.TID 0000.0001)                 9.723800918365814E+04,      /* J = 16 */
(PID.TID 0000.0001)                 9.628251625143306E+04,      /* J = 17 */
(PID.TID 0000.0001)                 9.529769473204810E+04,      /* J = 18 */
(PID.TID 0000.0001)                 9.428384461167829E+04,      /* J = 19 */
(PID.TID 0000.0001)                 9.324127471889161E+04,      /* J = 20 */
(PID.TID 0000.0001)                 9.217030263057708E+04,      /* J = 21 */
(PID.TID 0000.0001)                 9.107125457520749E+04,      /* J = 22 */
(PID.TID 0000.0001)                 8.994446533346726E+04,      /* J = 23 */
(PID.TID 0000.0001)                 8.879027813627482E+04,      /* J = 24 */
(PID.TID 0000.0001)                 8.760904456023136E+04,      /* J = 25 */
(PID.TID 0000.0001)                 8.640112442052698E+04,      /* J = 26 */
(PID.TID 0000.0001)                 8.516688566133760E+04,      /* J = 27 */
(PID.TID 0000.0001)                 8.390670424374563E+04,      /* J = 28 */
(PID.TID 0000.0001)                 8.262096403121852E+04,      /* J = 29 */
(PID.TID 0000.0001)                 8.131005667268026E+04,      /* J = 30 */
(PID.TID 0000.0001)                 7.997438148321131E+04,      /* J = 31 */
(PID.TID 0000.0001)                 7.861434532241333E+04,      /* J = 32 */
(PID.TID 0000.0001)                 7.723036247047588E+04,      /* J = 33 */
(PID.TID 0000.0001)                 7.582285450198260E+04,      /* J = 34 */
(PID.TID 0000.0001)                 7.439225015749552E+04,      /* J = 35 */
(PID.TID 0000.0001)                 7.293898521295658E+04,      /* J = 36 */
(PID.TID 0000.0001)                 7.146350234694594E+04,      /* J = 37 */
(PID.TID 0000.0001)                 6.996625100583793E+04,      /* J = 38 */
(PID.TID 0000.0001)                 6.844768726689526E+04,      /* J = 39 */
(PID.TID 0000.0001)                 6.690827369934345E+04,      /* J = 40 */
(PID.TID 0000.0001)                 6.534847922346782E+04,      /* J = 41 */
(PID.TID 0000.0001)                 6.376877896777580E+04,      /* J = 42 */
(PID.TID 0000.0001)                 6.216965412426815E+04,      /* J = 43 */
(PID.TID 0000.0001)                 6.055159180186329E+04,      /* J = 44 */
(PID.TID 0000.0001)                 5.891508487801914E+04,      /* J = 45 */
(PID.TID 0000.0001)                 5.726063184859791E+04,      /* J = 46 */
(PID.TID 0000.0001)                 5.558873667601941E+04,      /* J = 47 */
(PID.TID 0000.0001)                 5.389990863574919E+04,      /* J = 48 */
(PID.TID 0000.0001)                 5.219466216116838E+04,      /* J = 49 */
(PID.TID 0000.0001)                 5.047351668687224E+04,      /* J = 50 */
(PID.TID 0000.0001)                 4.873699649044534E+04,      /* J = 51 */
(PID.TID 0000.0001)                 4.698563053276157E+04,      /* J = 52 */
(PID.TID 0000.0001)                 4.521995229685750E+04,      /* J = 53 */
(PID.TID 0000.0001)                 4.344049962542827E+04,      /* J = 54 */
(PID.TID 0000.0001)                 4.164781455699559E+04,      /* J = 55 */
(PID.TID 0000.0001)                 3.984244316079742E+04,      /* J = 56 */
(PID.TID 0000.0001)                 3.802493537045004E+04,      /* J = 57 */
(PID.TID 0000.0001)                 3.619584481643300E+04,      /* J = 58 */
(PID.TID 0000.0001)                 3.435572865744785E+04,      /* J = 59 */
(PID.TID 0000.0001)                 3.250514741070222E+04,      /* J = 60 */
(PID.TID 0000.0001)                 3.064466478117086E+04,      /* J = 61 */
(PID.TID 0000.0001)                 2.877484748988563E+04       /* J = 62 */
(PID.TID 0000.0001)     ;
(PID.TID 0000.0001) dyG =  /* dyG(:,1,:,1) ( units: m ) */
(PID.TID 0000.0001)    62 @  1.111774733520388E+05              /* I =  1: 62 */
(PID.TID 0000.0001)     ;
(PID.TID 0000.0001) dyG =  /* dyG(1,:,1,:) ( units: m ) */
(PID.TID 0000.0001)    62 @  1.111774733520388E+05              /* J =  1: 62 */
(PID.TID 0000.0001)     ;
(PID.TID 0000.0001) dxC =  /* dxC(:,1,:,1) ( units: m ) */
(PID.TID 0000.0001)    62 @  1.076362084889763E+05              /* I =  1: 62 */
(PID.TID 0000.0001)     ;
(PID.TID 0000.0001) dxC =  /* dxC(1,:,1,:) ( units: m ) */
(PID.TID 0000.0001)                 1.076362084889763E+05,      /* J =  1 */
(PID.TID 0000.0001)                 1.071339990328148E+05,      /* J =  2 */
(PID.TID 0000.0001)                 1.065991555227175E+05,      /* J =  3 */
(PID.TID 0000.0001)                 1.060318408771987E+05,      /* J =  4 */
(PID.TID 0000.0001)                 1.054322279057952E+05,      /* J =  5 */
(PID.TID 0000.0001)                 1.048004992564268E+05,      /* J =  6 */
(PID.TID 0000.0001)                 1.041368473597596E+05,      /* J =  7 */
(PID.TID 0000.0001)                 1.034414743705903E+05,      /* J =  8 */
(PID.TID 0000.0001)                 1.027145921062676E+05,      /* J =  9 */
(PID.TID 0000.0001)                 1.019564219821708E+05,      /* J = 10 */
(PID.TID 0000.0001)                 1.011671949442642E+05,      /* J = 11 */
(PID.TID 0000.0001)                 1.003471513987490E+05,      /* J = 12 */
(PID.TID 0000.0001)                 9.949654113883297E+04,      /* J = 13 */
(PID.TID 0000.0001)                 9.861562326864146E+04,      /* J = 14 */
(PID.TID 0000.0001)                 9.770466612429130E+04,      /* J = 15 */
(PID.TID 0000.0001)                 9.676394719215337E+04,      /* J = 16 */
(PID.TID 0000.0001)                 9.579375302432729E+04,      /* J = 17 */
(PID.TID 0000.0001)                 9.479437915135507E+04,      /* J = 18 */
(PID.TID 0000.0001)                 9.376612999219958E+04,      /* J = 19 */
(PID.TID 0000.0001)                 9.270931876151556E+04,      /* J = 20 */
(PID.TID 0000.0001)                 9.162426737424145E+04,      /* J = 21 */
(PID.TID 0000.0001)                 9.051130634754094E+04,      /* J = 22 */
(PID.TID 0000.0001)                 8.937077470012424E+04,      /* J = 23 */
(PID.TID 0000.0001)                 8.820301984897976E+04,      /* J = 24 */
(PID.TID 0000.0001)                 8.700839750354746E+04,      /* J = 25 */
(PID.TID 0000.0001)                 8.578727155736629E+04,      /* J = 26 */
(PID.TID 0000.0001)                 8.454001397722879E+04,      /* J = 27 */
(PID.TID 0000.0001)                 8.326700468987631E+04,      /* J = 28 */
(PID.TID 0000.0001)                 8.196863146626971E+04,      /* J = 29 */
(PID.TID 0000.0001)                 8.064528980347053E+04,      /* J = 30 */
(PID.TID 0000.0001)                 7.929738280416874E+04,      /* J = 31 */
(PID.TID 0000.0001)                 7.792532105389380E+04,      /* J = 32 */
(PID.TID 0000.0001)                 7.652952249594631E+04,      /* J = 33 */
(PID.TID 0000.0001)                 7.511041230408842E+04,      /* J = 34 */
(PID.TID 0000.0001)                 7.366842275303182E+04,      /* J = 35 */
(PID.TID 0000.0001)                 7.220399308676260E+04,      /* J = 36 */
(PID.TID 0000.0001)                 7.071756938474336E+04,      /* J = 37 */
(PID.TID 0000.0001)                 6.920960442603305E+04,      /* J = 38 */
(PID.TID 0000.0001)                 6.768055755136609E+04,      /* J = 39 */
(PID.TID 0000.0001)                 6.613089452323270E+04,      /* J = 40 */
(PID.TID 0000.0001)                 6.456108738400316E+04,      /* J = 41 */
(PID.TID 0000.0001)                 6.297161431213917E+04,      /* J = 42 */
(PID.TID 0000.0001)                 6.136295947653597E+04,      /* J = 43 */
(PID.TID 0000.0001)                 5.973561288903989E+04,      /* J = 44 */
(PID.TID 0000.0001)                 5.809007025518592E+04,      /* J = 45 */
(PID.TID 0000.0001)                 5.642683282320108E+04,      /* J = 46 */
(PID.TID 0000.0001)                 5.474640723131929E+04,      /* J = 47 */
(PID.TID 0000.0001)                 5.304930535345447E+04,      /* J = 48 */
(PID.TID 0000.0001)                 5.133604414327884E+04,      /* J = 49 */
(PID.TID 0000.0001)                 4.960714547675374E+04,      /* J = 50 */
(PID.TID 0000.0001)                 4.786313599316124E+04,      /* J = 51 */
(PID.TID 0000.0001)                 4.610454693468459E+04,      /* J = 52 */
(PID.TID 0000.0001)                 4.433191398458685E+04,      /* J = 53 */
(PID.TID 0000.0001)                 4.254577710403652E+04,      /* J = 54 */
(PID.TID 0000.0001)                 4.074668036763009E+04,      /* J = 55 */
(PID.TID 0000.0001)                 3.893517179766173E+04,      /* J = 56 */
(PID.TID 0000.0001)                 3.711180319719033E+04,      /* J = 57 */
(PID.TID 0000.0001)                 3.527712998195496E+04,      /* J = 58 */
(PID.TID 0000.0001)                 3.343171101118984E+04,      /* J = 59 */
(PID.TID 0000.0001)                 3.157610841739049E+04,      /* J = 60 */
(PID.TID 0000.0001)                 2.971088743508254E+04,      /* J = 61 */
(PID.TID 0000.0001)                 2.783661622864603E+04       /* J = 62 */
(PID.TID 0000.0001)     ;
(PID.TID 0000.0001) dyC =  /* dyC(:,1,:,1) ( units: m ) */
(PID.TID 0000.0001)    62 @  1.111774733520388E+05              /* I =  1: 62 */
(PID.TID 0000.0001)     ;
(PID.TID 0000.0001) dyC =  /* dyC(1,:,1,:) ( units: m ) */
(PID.TID 0000.0001)    62 @  1.111774733520388E+05              /* J =  1: 62 */
(PID.TID 0000.0001)     ;
(PID.TID 0000.0001) dxV =  /* dxV(:,1,:,1) ( units: m ) */
(PID.TID 0000.0001)    62 @  1.078750272516468E+05              /* I =  1: 62 */
(PID.TID 0000.0001)     ;
(PID.TID 0000.0001) dxV =  /* dxV(1,:,1,:) ( units: m ) */
(PID.TID 0000.0001)                 1.078750272516468E+05,      /* J =  1 */
(PID.TID 0000.0001)                 1.073891928122990E+05,      /* J =  2 */
(PID.TID 0000.0001)                 1.068706465845181E+05,      /* J =  3 */
(PID.TID 0000.0001)                 1.063195465225083E+05,      /* J =  4 */
(PID.TID 0000.0001)                 1.057360604966873E+05,      /* J =  5 */
(PID.TID 0000.0001)                 1.051203662425507E+05,      /* J =  6 */
(PID.TID 0000.0001)                 1.044726513065328E+05,      /* J =  7 */
(PID.TID 0000.0001)                 1.037931129888776E+05,      /* J =  8 */
(PID.TID 0000.0001)                 1.030819582835396E+05,      /* J =  9 */
(PID.TID 0000.0001)                 1.023394038151311E+05,      /* J = 10 */
(PID.TID 0000.0001)                 1.015656757729363E+05,      /* J = 11 */
(PID.TID 0000.0001)                 1.007610098420124E+05,      /* J = 12 */
(PID.TID 0000.0001)                 9.992565113139673E+04,      /* J = 13 */
(PID.TID 0000.0001)                 9.905985409944496E+04,      /* J = 14 */
(PID.TID 0000.0001)                 9.816388247632013E+04,      /* J = 15 */
(PID.TID 0000.0001)                 9.723800918365814E+04,      /* J = 16 */
(PID.TID 0000.0001)                 9.628251625143306E+04,      /* J = 17 */
(PID.TID 0000.0001)                 9.529769473204810E+04,      /* J = 18 */
(PID.TID 0000.0001)                 9.428384461167829E+04,      /* J = 19 */
(PID.TID 0000.0001)                 9.324127471889161E+04,      /* J = 20 */
(PID.TID 0000.0001)                 9.217030263057708E+04,      /* J = 21 */
(PID.TID 0000.0001)                 9.107125457520749E+04,      /* J = 22 */
(PID.TID 0000.0001)                 8.994446533346726E+04,      /* J = 23 */
(PID.TID 0000.0001)                 8.879027813627482E+04,      /* J = 24 */
(PID.TID 0000.0001)                 8.760904456023136E+04,      /* J = 25 */
(PID.TID 0000.0001)                 8.640112442052698E+04,      /* J = 26 */
(PID.TID 0000.0001)                 8.516688566133760E+04,      /* J = 27 */
(PID.TID 0000.0001)                 8.390670424374563E+04,      /* J = 28 */
(PID.TID 0000.0001)                 8.262096403121852E+04,      /* J = 29 */
(PID.TID 0000.0001)                 8.131005667268026E+04,      /* J = 30 */
(PID.TID 0000.0001)                 7.997438148321131E+04,      /* J = 31 */
(PID.TID 0000.0001)                 7.861434532241333E+04,      /* J = 32 */
(PID.TID 0000.0001)                 7.723036247047588E+04,      /* J = 33 */
(PID.TID 0000.0001)                 7.582285450198260E+04,      /* J = 34 */
(PID.TID 0000.0001)                 7.439225015749552E+04,      /* J = 35 */
(PID.TID 0000.0001)                 7.293898521295658E+04,      /* J = 36 */
(PID.TID 0000.0001)                 7.146350234694594E+04,      /* J = 37 */
(PID.TID 0000.0001)                 6.996625100583793E+04,      /* J = 38 */
(PID.TID 0000.0001)                 6.844768726689526E+04,      /* J = 39 */
(PID.TID 0000.0001)                 6.690827369934345E+04,      /* J = 40 */
(PID.TID 0000.0001)                 6.534847922346782E+04,      /* J = 41 */
(PID.TID 0000.0001)                 6.376877896777580E+04,      /* J = 42 */
(PID.TID 0000.0001)                 6.216965412426815E+04,      /* J = 43 */
(PID.TID 0000.0001)                 6.055159180186329E+04,      /* J = 44 */
(PID.TID 0000.0001)                 5.891508487801914E+04,      /* J = 45 */
(PID.TID 0000.0001)                 5.726063184859791E+04,      /* J = 46 */
(PID.TID 0000.0001)                 5.558873667601941E+04,      /* J = 47 */
(PID.TID 0000.0001)                 5.389990863574919E+04,      /* J = 48 */
(PID.TID 0000.0001)                 5.219466216116838E+04,      /* J = 49 */
(PID.TID 0000.0001)                 5.047351668687224E+04,      /* J = 50 */
(PID.TID 0000.0001)                 4.873699649044534E+04,      /* J = 51 */
(PID.TID 0000.0001)                 4.698563053276157E+04,      /* J = 52 */
(PID.TID 0000.0001)                 4.521995229685750E+04,      /* J = 53 */
(PID.TID 0000.0001)                 4.344049962542827E+04,      /* J = 54 */
(PID.TID 0000.0001)                 4.164781455699559E+04,      /* J = 55 */
(PID.TID 0000.0001)                 3.984244316079742E+04,      /* J = 56 */
(PID.TID 0000.0001)                 3.802493537045004E+04,      /* J = 57 */
(PID.TID 0000.0001)                 3.619584481643300E+04,      /* J = 58 */
(PID.TID 0000.0001)                 3.435572865744785E+04,      /* J = 59 */
(PID.TID 0000.0001)                 3.250514741070222E+04,      /* J = 60 */
(PID.TID 0000.0001)                 3.064466478117086E+04,      /* J = 61 */
(PID.TID 0000.0001)                 2.877484748988563E+04       /* J = 62 */
(PID.TID 0000.0001)     ;
(PID.TID 0000.0001) dyU =  /* dyU(:,1,:,1) ( units: m ) */
(PID.TID 0000.0001)    62 @  1.111774733520388E+05              /* I =  1: 62 */
(PID.TID 0000.0001)     ;
(PID.TID 0000.0001) dyU =  /* dyU(1,:,1,:) ( units: m ) */
(PID.TID 0000.0001)    62 @  1.111774733520388E+05              /* J =  1: 62 */
(PID.TID 0000.0001)     ;
(PID.TID 0000.0001) rA  =  /* rA (:,1,:,1) ( units: m^2 ) */
(PID.TID 0000.0001)    62 @  1.196656981524733E+10              /* I =  1: 62 */
(PID.TID 0000.0001)     ;
(PID.TID 0000.0001) rA  =  /* rA (1,:,1,:) ( units: m^2 ) */
(PID.TID 0000.0001)                 1.196656981524733E+10,      /* J =  1 */
(PID.TID 0000.0001)                 1.191073614548694E+10,      /* J =  2 */
(PID.TID 0000.0001)                 1.185127435011474E+10,      /* J =  3 */
(PID.TID 0000.0001)                 1.178820254176960E+10,      /* J =  4 */
(PID.TID 0000.0001)                 1.172153993273539E+10,      /* J =  5 */
(PID.TID 0000.0001)                 1.165130682908854E+10,      /* J =  6 */
(PID.TID 0000.0001)                 1.157752462451282E+10,      /* J =  7 */
(PID.TID 0000.0001)                 1.150021579378240E+10,      /* J =  8 */
(PID.TID 0000.0001)                 1.141940388591624E+10,      /* J =  9 */
(PID.TID 0000.0001)                 1.133511351700411E+10,      /* J = 10 */
(PID.TID 0000.0001)                 1.124737036270893E+10,      /* J = 11 */
(PID.TID 0000.0001)                 1.115620115044562E+10,      /* J = 12 */
(PID.TID 0000.0001)                 1.106163365123932E+10,      /* J = 13 */
(PID.TID 0000.0001)                 1.096369667126643E+10,      /* J = 14 */
(PID.TID 0000.0001)                 1.086242004307971E+10,      /* J = 15 */
(PID.TID 0000.0001)                 1.075783461652121E+10,      /* J = 16 */
(PID.TID 0000.0001)                 1.064997224932518E+10,      /* J = 17 */
(PID.TID 0000.0001)                 1.053886579741327E+10,      /* J = 18 */
(PID.TID 0000.0001)                 1.042454910488719E+10,      /* J = 19 */
(PID.TID 0000.0001)                 1.030705699371901E+10,      /* J = 20 */
(PID.TID 0000.0001)                 1.018642525314361E+10,      /* J = 21 */
(PID.TID 0000.0001)                 1.006269062875826E+10,      /* J = 22 */
(PID.TID 0000.0001)                 9.935890811327726E+09,      /* J = 23 */
(PID.TID 0000.0001)                 9.806064425305017E+09,      /* J = 24 */
(PID.TID 0000.0001)                 9.673251017064857E+09,      /* J = 25 */
(PID.TID 0000.0001)                 9.537491042857967E+09,      /* J = 26 */
(PID.TID 0000.0001)                 9.398825856487764E+09,      /* J = 27 */
(PID.TID 0000.0001)                 9.257297696713127E+09,      /* J = 28 */
(PID.TID 0000.0001)                 9.112949674382658E+09,      /* J = 29 */
(PID.TID 0000.0001)                 8.965825759302095E+09,      /* J = 30 */
(PID.TID 0000.0001)                 8.815970766841616E+09,      /* J = 31 */
(PID.TID 0000.0001)                 8.663430344283134E+09,      /* J = 32 */
(PID.TID 0000.0001)                 8.508250956917325E+09,      /* J = 33 */
(PID.TID 0000.0001)                 8.350479873888739E+09,      /* J = 34 */
(PID.TID 0000.0001)                 8.190165153797634E+09,      /* J = 35 */
(PID.TID 0000.0001)                 8.027355630060758E+09,      /* J = 36 */
(PID.TID 0000.0001)                 7.862100896036314E+09,      /* J = 37 */
(PID.TID 0000.0001)                 7.694451289916993E+09,      /* J = 38 */
(PID.TID 0000.0001)                 7.524457879396867E+09,      /* J = 39 */
(PID.TID 0000.0001)                 7.352172446115701E+09,      /* J = 40 */
(PID.TID 0000.0001)                 7.177647469885461E+09,      /* J = 41 */
(PID.TID 0000.0001)                 7.000936112704228E+09,      /* J = 42 */
(PID.TID 0000.0001)                 6.822092202563635E+09,      /* J = 43 */
(PID.TID 0000.0001)                 6.641170217051002E+09,      /* J = 44 */
(PID.TID 0000.0001)                 6.458225266755869E+09,      /* J = 45 */
(PID.TID 0000.0001)                 6.273313078481994E+09,      /* J = 46 */
(PID.TID 0000.0001)                 6.086489978273873E+09,      /* J = 47 */
(PID.TID 0000.0001)                 5.897812874256844E+09,      /* J = 48 */
(PID.TID 0000.0001)                 5.707339239305150E+09,      /* J = 49 */
(PID.TID 0000.0001)                 5.515127093532865E+09,      /* J = 50 */
(PID.TID 0000.0001)                 5.321234986621662E+09,      /* J = 51 */
(PID.TID 0000.0001)                 5.125721979985523E+09,      /* J = 52 */
(PID.TID 0000.0001)                 4.928647628780381E+09,      /* J = 53 */
(PID.TID 0000.0001)                 4.730071963762583E+09,      /* J = 54 */
(PID.TID 0000.0001)                 4.530055473003219E+09,      /* J = 55 */
(PID.TID 0000.0001)                 4.328659083463440E+09,      /* J = 56 */
(PID.TID 0000.0001)                 4.125944142434158E+09,      /* J = 57 */
(PID.TID 0000.0001)                 3.921972398849850E+09,      /* J = 58 */
(PID.TID 0000.0001)                 3.716805984480110E+09,      /* J = 59 */
(PID.TID 0000.0001)                 3.510507395001996E+09,      /* J = 60 */
(PID.TID 0000.0001)                 3.303139470964198E+09,      /* J = 61 */
(PID.TID 0000.0001)                 3.094765378645439E+09       /* J = 62 */
(PID.TID 0000.0001)     ;
(PID.TID 0000.0001) rAw =  /* rAw(:,1,:,1) ( units: m^2 ) */
(PID.TID 0000.0001)    62 @  1.196656981524733E+10              /* I =  1: 62 */
(PID.TID 0000.0001)     ;
(PID.TID 0000.0001) rAw =  /* rAw(1,:,1,:) ( units: m^2 ) */
(PID.TID 0000.0001)                 1.196656981524733E+10,      /* J =  1 */
(PID.TID 0000.0001)                 1.191073614548694E+10,      /* J =  2 */
(PID.TID 0000.0001)                 1.185127435011474E+10,      /* J =  3 */
(PID.TID 0000.0001)                 1.178820254176960E+10,      /* J =  4 */
(PID.TID 0000.0001)                 1.172153993273539E+10,      /* J =  5 */
(PID.TID 0000.0001)                 1.165130682908854E+10,      /* J =  6 */
(PID.TID 0000.0001)                 1.157752462451282E+10,      /* J =  7 */
(PID.TID 0000.0001)                 1.150021579378240E+10,      /* J =  8 */
(PID.TID 0000.0001)                 1.141940388591624E+10,      /* J =  9 */
(PID.TID 0000.0001)                 1.133511351700411E+10,      /* J = 10 */
(PID.TID 0000.0001)                 1.124737036270893E+10,      /* J = 11 */
(PID.TID 0000.0001)                 1.115620115044562E+10,      /* J = 12 */
(PID.TID 0000.0001)                 1.106163365123932E+10,      /* J = 13 */
(PID.TID 0000.0001)                 1.096369667126643E+10,      /* J = 14 */
(PID.TID 0000.0001)                 1.086242004307971E+10,      /* J = 15 */
(PID.TID 0000.0001)                 1.075783461652121E+10,      /* J = 16 */
(PID.TID 0000.0001)                 1.064997224932518E+10,      /* J = 17 */
(PID.TID 0000.0001)                 1.053886579741327E+10,      /* J = 18 */
(PID.TID 0000.0001)                 1.042454910488719E+10,      /* J = 19 */
(PID.TID 0000.0001)                 1.030705699371901E+10,      /* J = 20 */
(PID.TID 0000.0001)                 1.018642525314361E+10,      /* J = 21 */
(PID.TID 0000.0001)                 1.006269062875826E+10,      /* J = 22 */
(PID.TID 0000.0001)                 9.935890811327726E+09,      /* J = 23 */
(PID.TID 0000.0001)                 9.806064425305017E+09,      /* J = 24 */
(PID.TID 0000.0001)                 9.673251017064857E+09,      /* J = 25 */
(PID.TID 0000.0001)                 9.537491042857967E+09,      /* J = 26 */
(PID.TID 0000.0001)                 9.398825856487764E+09,      /* J = 27 */
(PID.TID 0000.0001)                 9.257297696713127E+09,      /* J = 28 */
(PID.TID 0000.0001)                 9.112949674382658E+09,      /* J = 29 */
(PID.TID 0000.0001)                 8.965825759302095E+09,      /* J = 30 */
(PID.TID 0000.0001)                 8.815970766841616E+09,      /* J = 31 */
(PID.TID 0000.0001)                 8.663430344283134E+09,      /* J = 32 */
(PID.TID 0000.0001)                 8.508250956917325E+09,      /* J = 33 */
(PID.TID 0000.0001)                 8.350479873888739E+09,      /* J = 34 */
(PID.TID 0000.0001)                 8.190165153797634E+09,      /* J = 35 */
(PID.TID 0000.0001)                 8.027355630060758E+09,      /* J = 36 */
(PID.TID 0000.0001)                 7.862100896036314E+09,      /* J = 37 */
(PID.TID 0000.0001)                 7.694451289916993E+09,      /* J = 38 */
(PID.TID 0000.0001)                 7.524457879396867E+09,      /* J = 39 */
(PID.TID 0000.0001)                 7.352172446115701E+09,      /* J = 40 */
(PID.TID 0000.0001)                 7.177647469885461E+09,      /* J = 41 */
(PID.TID 0000.0001)                 7.000936112704228E+09,      /* J = 42 */
(PID.TID 0000.0001)                 6.822092202563635E+09,      /* J = 43 */
(PID.TID 0000.0001)                 6.641170217051002E+09,      /* J = 44 */
(PID.TID 0000.0001)                 6.458225266755869E+09,      /* J = 45 */
(PID.TID 0000.0001)                 6.273313078481994E+09,      /* J = 46 */
(PID.TID 0000.0001)                 6.086489978273873E+09,      /* J = 47 */
(PID.TID 0000.0001)                 5.897812874256844E+09,      /* J = 48 */
(PID.TID 0000.0001)                 5.707339239305150E+09,      /* J = 49 */
(PID.TID 0000.0001)                 5.515127093532865E+09,      /* J = 50 */
(PID.TID 0000.0001)                 5.321234986621662E+09,      /* J = 51 */
(PID.TID 0000.0001)                 5.125721979985523E+09,      /* J = 52 */
(PID.TID 0000.0001)                 4.928647628780381E+09,      /* J = 53 */
(PID.TID 0000.0001)                 4.730071963762583E+09,      /* J = 54 */
(PID.TID 0000.0001)                 4.530055473003219E+09,      /* J = 55 */
(PID.TID 0000.0001)                 4.328659083463440E+09,      /* J = 56 */
(PID.TID 0000.0001)                 4.125944142434158E+09,      /* J = 57 */
(PID.TID 0000.0001)                 3.921972398849850E+09,      /* J = 58 */
(PID.TID 0000.0001)                 3.716805984480110E+09,      /* J = 59 */
(PID.TID 0000.0001)                 3.510507395001996E+09,      /* J = 60 */
(PID.TID 0000.0001)                 3.303139470964198E+09,      /* J = 61 */
(PID.TID 0000.0001)                 3.094765378645439E+09       /* J = 62 */
(PID.TID 0000.0001)     ;
(PID.TID 0000.0001) rAs =  /* rAs(:,1,:,1) ( units: m^2 ) */
(PID.TID 0000.0001)    62 @  1.199312074487231E+10              /* I =  1: 62 */
(PID.TID 0000.0001)     ;
(PID.TID 0000.0001) rAs =  /* rAs(1,:,1,:) ( units: m^2 ) */
(PID.TID 0000.0001)                 1.199312074487231E+10,      /* J =  1 */
(PID.TID 0000.0001)                 1.193910758500046E+10,      /* J =  2 */
(PID.TID 0000.0001)                 1.188145765730164E+10,      /* J =  3 */
(PID.TID 0000.0001)                 1.182018852250200E+10,      /* J =  4 */
(PID.TID 0000.0001)                 1.175531884377377E+10,      /* J =  5 */
(PID.TID 0000.0001)                 1.168686838104932E+10,      /* J =  6 */
(PID.TID 0000.0001)                 1.161485798500282E+10,      /* J =  7 */
(PID.TID 0000.0001)                 1.153930959069846E+10,      /* J =  8 */
(PID.TID 0000.0001)                 1.146024621090888E+10,      /* J =  9 */
(PID.TID 0000.0001)                 1.137769192910560E+10,      /* J = 10 */
(PID.TID 0000.0001)                 1.129167189212255E+10,      /* J = 11 */
(PID.TID 0000.0001)                 1.120221230249629E+10,      /* J = 12 */
(PID.TID 0000.0001)                 1.110934041048438E+10,      /* J = 13 */
(PID.TID 0000.0001)                 1.101308450576488E+10,      /* J = 14 */
(PID.TID 0000.0001)                 1.091347390881877E+10,      /* J = 15 */
(PID.TID 0000.0001)                 1.081053896199886E+10,      /* J = 16 */
(PID.TID 0000.0001)                 1.070431102028693E+10,      /* J = 17 */
(PID.TID 0000.0001)                 1.059482244174344E+10,      /* J = 18 */
(PID.TID 0000.0001)                 1.048210657764984E+10,      /* J = 19 */
(PID.TID 0000.0001)                 1.036619776235002E+10,      /* J = 20 */
(PID.TID 0000.0001)                 1.024713130279239E+10,      /* J = 21 */
(PID.TID 0000.0001)                 1.012494346777366E+10,      /* J = 22 */
(PID.TID 0000.0001)                 9.999671476892084E+09,      /* J = 23 */
(PID.TID 0000.0001)                 9.871353489209755E+09,      /* J = 24 */
(PID.TID 0000.0001)                 9.740028591628536E+09,      /* J = 25 */
(PID.TID 0000.0001)                 9.605736786984652E+09,      /* J = 26 */
(PID.TID 0000.0001)                 9.468518981862513E+09,      /* J = 27 */
(PID.TID 0000.0001)                 9.328416974134933E+09,      /* J = 28 */
(PID.TID 0000.0001)                 9.185473440230581E+09,      /* J = 29 */
(PID.TID 0000.0001)                 9.039731922134653E+09,      /* J = 30 */
(PID.TID 0000.0001)                 8.891236814125528E+09,      /* J = 31 */
(PID.TID 0000.0001)                 8.740033349251320E+09,      /* J = 32 */
(PID.TID 0000.0001)                 8.586167585552389E+09,      /* J = 33 */
(PID.TID 0000.0001)                 8.429686392030848E+09,      /* J = 34 */
(PID.TID 0000.0001)                 8.270637434373945E+09,      /* J = 35 */
(PID.TID 0000.0001)                 8.109069160435303E+09,      /* J = 36 */
(PID.TID 0000.0001)                 7.945030785475936E+09,      /* J = 37 */
(PID.TID 0000.0001)                 7.778572277174043E+09,      /* J = 38 */
(PID.TID 0000.0001)                 7.609744340403865E+09,      /* J = 39 */
(PID.TID 0000.0001)                 7.438598401790304E+09,      /* J = 40 */
(PID.TID 0000.0001)                 7.265186594044338E+09,      /* J = 41 */
(PID.TID 0000.0001)                 7.089561740082285E+09,      /* J = 42 */
(PID.TID 0000.0001)                 6.911777336936083E+09,      /* J = 43 */
(PID.TID 0000.0001)                 6.731887539457176E+09,      /* J = 44 */
(PID.TID 0000.0001)                 6.549947143820458E+09,      /* J = 45 */
(PID.TID 0000.0001)                 6.366011570833056E+09,      /* J = 46 */
(PID.TID 0000.0001)                 6.180136849052222E+09,      /* J = 47 */
(PID.TID 0000.0001)                 5.992379597718760E+09,      /* J = 48 */
(PID.TID 0000.0001)                 5.802797009510403E+09,      /* J = 49 */
(PID.TID 0000.0001)                 5.611446833120007E+09,      /* J = 50 */
(PID.TID 0000.0001)                 5.418387355664783E+09,      /* J = 51 */
(PID.TID 0000.0001)                 5.223677384932224E+09,      /* J = 52 */
(PID.TID 0000.0001)                 5.027376231465073E+09,      /* J = 53 */
(PID.TID 0000.0001)                 4.829543690496597E+09,      /* J = 54 */
(PID.TID 0000.0001)                 4.630240023735217E+09,      /* J = 55 */
(PID.TID 0000.0001)                 4.429525941008306E+09,      /* J = 56 */
(PID.TID 0000.0001)                 4.227462581770208E+09,      /* J = 57 */
(PID.TID 0000.0001)                 4.024111496477147E+09,      /* J = 58 */
(PID.TID 0000.0001)                 3.819534627839939E+09,      /* J = 59 */
(PID.TID 0000.0001)                 3.613794291954373E+09,      /* J = 60 */
(PID.TID 0000.0001)                 3.406953159319860E+09,      /* J = 61 */
(PID.TID 0000.0001)                 3.199074235749182E+09       /* J = 62 */
(PID.TID 0000.0001)     ;
(PID.TID 0000.0001) globalArea = /* Integrated horizontal Area (m^2) */
(PID.TID 0000.0001)                 2.440046518395721E+13
(PID.TID 0000.0001)     ;
(PID.TID 0000.0001) // =======================================================
(PID.TID 0000.0001) // End of Model config. summary
(PID.TID 0000.0001) // =======================================================
(PID.TID 0000.0001) 
(PID.TID 0000.0001) == Packages configuration : Check & print summary ==
(PID.TID 0000.0001) 
(PID.TID 0000.0001) GMREDI_CHECK: #define GMREDI
(PID.TID 0000.0001) GM_AdvForm =     /* if FALSE => use SkewFlux Form */
(PID.TID 0000.0001)                   F
(PID.TID 0000.0001)     ;
(PID.TID 0000.0001) GM_InMomAsStress = /* if TRUE => apply as Eddy Stress */
(PID.TID 0000.0001)                   F
(PID.TID 0000.0001)     ;
(PID.TID 0000.0001) GM_AdvSeparate = /* Calc Bolus & Euler Adv. separately */
(PID.TID 0000.0001)                   F
(PID.TID 0000.0001)     ;
(PID.TID 0000.0001) GM_ExtraDiag =   /* Tensor Extra Diag (line 1&2) non 0 */
(PID.TID 0000.0001)                   F
(PID.TID 0000.0001)     ;
(PID.TID 0000.0001) GM_isopycK =    /* Background Isopyc. Diffusivity [m^2/s] */
(PID.TID 0000.0001)                 1.000000000000000E+03
(PID.TID 0000.0001)     ;
(PID.TID 0000.0001) GM_advec*K =    /* Backg. GM-Advec(=Bolus) Diffusivity [m^2/s] */
(PID.TID 0000.0001)                 0.000000000000000E+00
(PID.TID 0000.0001)     ;
(PID.TID 0000.0001) GM_skewflx*K =  /* Background GM_SkewFlx Diffusivity [m^2/s] */
(PID.TID 0000.0001)                 1.000000000000000E+03
(PID.TID 0000.0001)     ;
(PID.TID 0000.0001) GM_isoFac_calcK = /* Fraction of dynamic K added to Redi tensor */
(PID.TID 0000.0001)                 1.000000000000000E+00
(PID.TID 0000.0001)     ;
(PID.TID 0000.0001) GM_Kmin_horiz = /* Minimum Horizontal Diffusivity [m^2/s] */
(PID.TID 0000.0001)                 5.000000000000000E+01
(PID.TID 0000.0001)     ;
(PID.TID 0000.0001) GM_Visbeck_alpha = /* Visbeck alpha coeff. [-] */
(PID.TID 0000.0001)                 0.000000000000000E+00
(PID.TID 0000.0001)     ;
(PID.TID 0000.0001) GM_Small_Number =  /* epsilon used in slope calc */
(PID.TID 0000.0001)                 9.999999999999999E-21
(PID.TID 0000.0001)     ;
(PID.TID 0000.0001) GM_slopeSqCutoff = /* Slope^2 cut-off value */
(PID.TID 0000.0001)                 1.000000000000000E+08
(PID.TID 0000.0001)     ;
(PID.TID 0000.0001) GM_taper_scheme =  /* Type of Tapering/Clipping scheme */
(PID.TID 0000.0001)               'dm95                                    '
(PID.TID 0000.0001)     ;
(PID.TID 0000.0001) GM_maxSlope =  /* Maximum Slope (Tapering/Clipping) */
(PID.TID 0000.0001)                 1.000000000000000E-02
(PID.TID 0000.0001)     ;
(PID.TID 0000.0001) GM_facTrL2dz = /* Minimum Trans.Layer Thick. (factor of dz) */
(PID.TID 0000.0001)                 1.000000000000000E+00
(PID.TID 0000.0001)     ;
(PID.TID 0000.0001) GM_facTrL2ML = /* Max.Trans.Layer Thick. (factor of MxL Depth)*/
(PID.TID 0000.0001)                 5.000000000000000E+00
(PID.TID 0000.0001)     ;
(PID.TID 0000.0001) GM_maxTransLay = /* Maximum Transition Layer Thickness [m] */
(PID.TID 0000.0001)                 5.000000000000000E+02
(PID.TID 0000.0001)     ;
(PID.TID 0000.0001) GM_UseBVP = /* if TRUE => use bvp a la Ferrari et al. (2010) */
(PID.TID 0000.0001)                   F
(PID.TID 0000.0001)     ;
(PID.TID 0000.0001) GM_BVP_ModeNumber = /* Vertical mode number for BVP wave speed */
(PID.TID 0000.0001)                       1
(PID.TID 0000.0001)     ;
(PID.TID 0000.0001) GM_BVP_cMin = /* Minimum wave speed for BVP [m/s] */
(PID.TID 0000.0001)                 1.000000000000000E-01
(PID.TID 0000.0001)     ;
(PID.TID 0000.0001) GM_useSubMeso = /* if TRUE => use Sub-Meso param. (B.Fox-Kemper) */
(PID.TID 0000.0001)                   F
(PID.TID 0000.0001)     ;
(PID.TID 0000.0001) subMeso_Ceff = /* efficiency coeff. of Mixed-Layer Eddies [-] */
(PID.TID 0000.0001)                 7.000000000000001E-02
(PID.TID 0000.0001)     ;
(PID.TID 0000.0001) subMeso_invTau = /* inverse of Sub-Meso mixing time-scale [/s] */
(PID.TID 0000.0001)                 2.000000000000000E-06
(PID.TID 0000.0001)     ;
(PID.TID 0000.0001) subMeso_LfMin = /* minimum length-scale "Lf" [m] */
(PID.TID 0000.0001)                 1.000000000000000E+03
(PID.TID 0000.0001)     ;
(PID.TID 0000.0001) subMeso_Lmax = /* maximum grid-scale length [m] */
(PID.TID 0000.0001)                 1.100000000000000E+05
(PID.TID 0000.0001)     ;
(PID.TID 0000.0001) GM_useLeithQG = /* if TRUE => add QG Leith viscosity to GMRedi tensor */
(PID.TID 0000.0001)                   F
(PID.TID 0000.0001)     ;
(PID.TID 0000.0001) GM_useGEOM = /* using GEOMETRIC */
(PID.TID 0000.0001)                   F
(PID.TID 0000.0001)     ;
(PID.TID 0000.0001) CTRL_CHECK:  --> Starts to check CTRL set-up
(PID.TID 0000.0001) CTRL_CHECK:  <-- Ends Normally
(PID.TID 0000.0001) 
(PID.TID 0000.0001) COST_CHECK: #define ALLOW_COST
(PID.TID 0000.0001) GRDCHK_CHECK: grdchk package
(PID.TID 0000.0001) 
(PID.TID 0000.0001) // =======================================================
(PID.TID 0000.0001) // Gradient check configuration  >>> START <<<
(PID.TID 0000.0001) // =======================================================
(PID.TID 0000.0001) 
(PID.TID 0000.0001)   grdchkvarindex :                      1
(PID.TID 0000.0001)   matching CTRL xx_file:       "xx_theta"
(PID.TID 0000.0001)   eps =                         1.000E-05
(PID.TID 0000.0001)   First location:                       0
(PID.TID 0000.0001)   Last location:                        4
(PID.TID 0000.0001)   Increment:                            1
(PID.TID 0000.0001)   grdchkWhichProc:                      0
(PID.TID 0000.0001)   iLocTile =      1 ,   jLocTile =      1
(PID.TID 0000.0001) 
(PID.TID 0000.0001) // =======================================================
(PID.TID 0000.0001) // Gradient check configuration  >>> END <<<
(PID.TID 0000.0001) // =======================================================
(PID.TID 0000.0001) 
(PID.TID 0000.0001) GAD_CHECK: #define ALLOW_GENERIC_ADVDIFF
(PID.TID 0000.0001) // =======================================================
(PID.TID 0000.0001) // Check Model config. (CONFIG_CHECK):
(PID.TID 0000.0001) // CONFIG_CHECK : Normal End
(PID.TID 0000.0001) // =======================================================
(PID.TID 0000.0001) 
(PID.TID 0000.0001) Start initial hydrostatic pressure computation
(PID.TID 0000.0001) Pressure is predetermined for buoyancyRelation OCEANIC
(PID.TID 0000.0001) 
(PID.TID 0000.0001) DIAGSTATS_INI_IO: open file: dynStDiag.0000000000.txt , unit=     9
(PID.TID 0000.0001) // =======================================================
(PID.TID 0000.0001) // Model current state
(PID.TID 0000.0001) // =======================================================
(PID.TID 0000.0001) 
(PID.TID 0000.0001) // =======================================================
(PID.TID 0000.0001) // Begin MONITOR dynamic field statistics
(PID.TID 0000.0001) // =======================================================
(PID.TID 0000.0001) %MON time_tsnumber                =                     0
(PID.TID 0000.0001) %MON time_secondsf                =   0.0000000000000E+00
(PID.TID 0000.0001) %MON dynstat_eta_max              =   0.0000000000000E+00
(PID.TID 0000.0001) %MON dynstat_eta_min              =   0.0000000000000E+00
(PID.TID 0000.0001) %MON dynstat_eta_mean             =   0.0000000000000E+00
(PID.TID 0000.0001) %MON dynstat_eta_sd               =   0.0000000000000E+00
(PID.TID 0000.0001) %MON dynstat_eta_del2             =   0.0000000000000E+00
(PID.TID 0000.0001) %MON dynstat_uvel_max             =   0.0000000000000E+00
(PID.TID 0000.0001) %MON dynstat_uvel_min             =   0.0000000000000E+00
(PID.TID 0000.0001) %MON dynstat_uvel_mean            =   0.0000000000000E+00
(PID.TID 0000.0001) %MON dynstat_uvel_sd              =   0.0000000000000E+00
(PID.TID 0000.0001) %MON dynstat_uvel_del2            =   0.0000000000000E+00
(PID.TID 0000.0001) %MON dynstat_vvel_max             =   0.0000000000000E+00
(PID.TID 0000.0001) %MON dynstat_vvel_min             =   0.0000000000000E+00
(PID.TID 0000.0001) %MON dynstat_vvel_mean            =   0.0000000000000E+00
(PID.TID 0000.0001) %MON dynstat_vvel_sd              =   0.0000000000000E+00
(PID.TID 0000.0001) %MON dynstat_vvel_del2            =   0.0000000000000E+00
(PID.TID 0000.0001) %MON dynstat_wvel_max             =  -0.0000000000000E+00
(PID.TID 0000.0001) %MON dynstat_wvel_min             =  -0.0000000000000E+00
(PID.TID 0000.0001) %MON dynstat_wvel_mean            =   0.0000000000000E+00
(PID.TID 0000.0001) %MON dynstat_wvel_sd              =   0.0000000000000E+00
(PID.TID 0000.0001) %MON dynstat_wvel_del2            =   0.0000000000000E+00
(PID.TID 0000.0001) %MON dynstat_theta_max            =   2.3000000000000E+01
(PID.TID 0000.0001) %MON dynstat_theta_min            =   1.0000000000000E+00
(PID.TID 0000.0001) %MON dynstat_theta_mean           =   4.0799558546244E+00
(PID.TID 0000.0001) %MON dynstat_theta_sd             =   4.6722746748116E+00
(PID.TID 0000.0001) %MON dynstat_theta_del2           =   0.0000000000000E+00
(PID.TID 0000.0001) %MON dynstat_salt_max             =   3.4500000000000E+01
(PID.TID 0000.0001) %MON dynstat_salt_min             =   3.4500000000000E+01
(PID.TID 0000.0001) %MON dynstat_salt_mean            =   3.4500000000000E+01
(PID.TID 0000.0001) %MON dynstat_salt_sd              =   1.2079226507922E-13
(PID.TID 0000.0001) %MON dynstat_salt_del2            =   0.0000000000000E+00
(PID.TID 0000.0001) %MON trAdv_CFL_u_max              =   0.0000000000000E+00
(PID.TID 0000.0001) %MON trAdv_CFL_v_max              =   0.0000000000000E+00
(PID.TID 0000.0001) %MON trAdv_CFL_w_max              =   0.0000000000000E+00
(PID.TID 0000.0001) %MON advcfl_uvel_max              =   0.0000000000000E+00
(PID.TID 0000.0001) %MON advcfl_vvel_max              =   0.0000000000000E+00
(PID.TID 0000.0001) %MON advcfl_wvel_max              =   0.0000000000000E+00
(PID.TID 0000.0001) %MON advcfl_W_hf_max              =   0.0000000000000E+00
(PID.TID 0000.0001) %MON pe_b_mean                    =   0.0000000000000E+00
(PID.TID 0000.0001) %MON ke_max                       =   0.0000000000000E+00
(PID.TID 0000.0001) %MON ke_mean                      =   0.0000000000000E+00
(PID.TID 0000.0001) %MON ke_vol                       =   7.5744557036543E+16
(PID.TID 0000.0001) %MON vort_r_min                   =   0.0000000000000E+00
(PID.TID 0000.0001) %MON vort_r_max                   =   0.0000000000000E+00
(PID.TID 0000.0001) %MON vort_a_mean                  =   9.3555569952478E-05
(PID.TID 0000.0001) %MON vort_a_sd                    =   2.5193989267263E-05
(PID.TID 0000.0001) %MON vort_p_mean                  =   9.7478626213494E-05
(PID.TID 0000.0001) %MON vort_p_sd                    =   3.9497926395612E-05
(PID.TID 0000.0001) %MON surfExpan_theta_mean         =   0.0000000000000E+00
(PID.TID 0000.0001) %MON surfExpan_salt_mean          =   0.0000000000000E+00
(PID.TID 0000.0001) // =======================================================
(PID.TID 0000.0001) // End MONITOR dynamic field statistics
(PID.TID 0000.0001) // =======================================================
 cg2d: Sum(rhs),rhsMax =   0.00000000000000E+00  9.39971892369837E-04
(PID.TID 0000.0001) // =======================================================
(PID.TID 0000.0001) // Begin MONITOR dynamic field statistics
(PID.TID 0000.0001) // =======================================================
(PID.TID 0000.0001) %MON time_tsnumber                =                     1
(PID.TID 0000.0001) %MON time_secondsf                =   1.2000000000000E+03
(PID.TID 0000.0001) %MON dynstat_eta_max              =   1.4600546686420E-03
(PID.TID 0000.0001) %MON dynstat_eta_min              =  -1.4600546686420E-03
(PID.TID 0000.0001) %MON dynstat_eta_mean             =  -6.8702814543473E-23
(PID.TID 0000.0001) %MON dynstat_eta_sd               =   1.6576422369829E-04
(PID.TID 0000.0001) %MON dynstat_eta_del2             =   2.6235263270064E-06
(PID.TID 0000.0001) %MON dynstat_uvel_max             =   1.1793900334931E-02
(PID.TID 0000.0001) %MON dynstat_uvel_min             =  -7.2035336262684E-03
(PID.TID 0000.0001) %MON dynstat_uvel_mean            =   9.5905784036202E-06
(PID.TID 0000.0001) %MON dynstat_uvel_sd              =   4.0222819924897E-04
(PID.TID 0000.0001) %MON dynstat_uvel_del2            =   7.2412411502184E-08
(PID.TID 0000.0001) %MON dynstat_vvel_max             =   7.4887759737519E-05
(PID.TID 0000.0001) %MON dynstat_vvel_min             =  -7.4887759737519E-05
(PID.TID 0000.0001) %MON dynstat_vvel_mean            =   2.0973761410489E-24
(PID.TID 0000.0001) %MON dynstat_vvel_sd              =   1.3714525815729E-06
(PID.TID 0000.0001) %MON dynstat_vvel_del2            =   1.7216602394212E-08
(PID.TID 0000.0001) %MON dynstat_wvel_max             =   1.2167122238683E-06
(PID.TID 0000.0001) %MON dynstat_wvel_min             =  -1.2167122238683E-06
(PID.TID 0000.0001) %MON dynstat_wvel_mean            =   7.7776304505990E-28
(PID.TID 0000.0001) %MON dynstat_wvel_sd              =   9.9298265379659E-09
(PID.TID 0000.0001) %MON dynstat_wvel_del2            =   1.3157889799148E-10
(PID.TID 0000.0001) %MON dynstat_theta_max            =   2.3003125000000E+01
(PID.TID 0000.0001) %MON dynstat_theta_min            =   1.0000000000000E+00
(PID.TID 0000.0001) %MON dynstat_theta_mean           =   4.0799469544343E+00
(PID.TID 0000.0001) %MON dynstat_theta_sd             =   4.6722386396937E+00
(PID.TID 0000.0001) %MON dynstat_theta_del2           =   5.4318380518841E-09
(PID.TID 0000.0001) %MON dynstat_salt_max             =   3.4500000000000E+01
(PID.TID 0000.0001) %MON dynstat_salt_min             =   3.4500000000000E+01
(PID.TID 0000.0001) %MON dynstat_salt_mean            =   3.4500000000000E+01
(PID.TID 0000.0001) %MON dynstat_salt_sd              =   1.2079226507922E-13
(PID.TID 0000.0001) %MON dynstat_salt_del2            =   0.0000000000000E+00
(PID.TID 0000.0001) %MON trAdv_CFL_u_max              =   1.7805617345558E-04
(PID.TID 0000.0001) %MON trAdv_CFL_v_max              =   8.5720964623160E-07
(PID.TID 0000.0001) %MON trAdv_CFL_w_max              =   1.7492737482998E-04
(PID.TID 0000.0001) %MON advcfl_uvel_max              =   1.7805391350535E-04
(PID.TID 0000.0001) %MON advcfl_vvel_max              =   8.0830503676287E-07
(PID.TID 0000.0001) %MON advcfl_wvel_max              =   2.9201093372840E-04
(PID.TID 0000.0001) %MON advcfl_W_hf_max              =   4.1842246057245E-05
(PID.TID 0000.0001) %MON pe_b_mean                    =   4.3417748219799E-11
(PID.TID 0000.0001) %MON ke_max                       =   6.9548925207051E-05
(PID.TID 0000.0001) %MON ke_mean                      =   7.9155608712308E-08
(PID.TID 0000.0001) %MON ke_vol                       =   7.5744557036543E+16
(PID.TID 0000.0001) %MON vort_r_min                   =  -8.5472717953137E-08
(PID.TID 0000.0001) %MON vort_r_max                   =   6.9878480993455E-08
(PID.TID 0000.0001) %MON vort_a_mean                  =   9.3555569952478E-05
(PID.TID 0000.0001) %MON vort_a_sd                    =   2.5193994752305E-05
(PID.TID 0000.0001) %MON vort_p_mean                  =   9.7478626213494E-05
(PID.TID 0000.0001) %MON vort_p_sd                    =   3.9497936287099E-05
(PID.TID 0000.0001) %MON surfExpan_theta_mean         =  -2.0873250946367E-24
(PID.TID 0000.0001) %MON surfExpan_salt_mean          =   8.9456789770146E-25
(PID.TID 0000.0001) // =======================================================
(PID.TID 0000.0001) // End MONITOR dynamic field statistics
(PID.TID 0000.0001) // =======================================================
 cg2d: Sum(rhs),rhsMax =   1.52655665885959E-15  2.49251898139421E-03
(PID.TID 0000.0001) // =======================================================
(PID.TID 0000.0001) // Begin MONITOR dynamic field statistics
(PID.TID 0000.0001) // =======================================================
(PID.TID 0000.0001) %MON time_tsnumber                =                     2
(PID.TID 0000.0001) %MON time_secondsf                =   2.4000000000000E+03
(PID.TID 0000.0001) %MON dynstat_eta_max              =   3.8769848784748E-03
(PID.TID 0000.0001) %MON dynstat_eta_min              =  -3.8803785794487E-03
(PID.TID 0000.0001) %MON dynstat_eta_mean             =  -2.9618546714297E-21
(PID.TID 0000.0001) %MON dynstat_eta_sd               =   4.4686843347455E-04
(PID.TID 0000.0001) %MON dynstat_eta_del2             =   6.2076851148499E-06
(PID.TID 0000.0001) %MON dynstat_uvel_max             =   2.3587797864584E-02
(PID.TID 0000.0001) %MON dynstat_uvel_min             =  -1.4407047537164E-02
(PID.TID 0000.0001) %MON dynstat_uvel_mean            =   1.8810495885706E-05
(PID.TID 0000.0001) %MON dynstat_uvel_sd              =   8.0411004570114E-04
(PID.TID 0000.0001) %MON dynstat_uvel_del2            =   1.6967186478946E-07
(PID.TID 0000.0001) %MON dynstat_vvel_max             =   7.9336530147801E-04
(PID.TID 0000.0001) %MON dynstat_vvel_min             =  -2.1787172964431E-03
(PID.TID 0000.0001) %MON dynstat_vvel_mean            =  -2.1043951931754E-06
(PID.TID 0000.0001) %MON dynstat_vvel_sd              =   6.9211750124137E-05
(PID.TID 0000.0001) %MON dynstat_vvel_del2            =   8.9526430804806E-08
(PID.TID 0000.0001) %MON dynstat_wvel_max             =   2.0141085081940E-06
(PID.TID 0000.0001) %MON dynstat_wvel_min             =  -2.0169365923389E-06
(PID.TID 0000.0001) %MON dynstat_wvel_mean            =  -6.9871171916856E-27
(PID.TID 0000.0001) %MON dynstat_wvel_sd              =   3.4449122802855E-08
(PID.TID 0000.0001) %MON dynstat_wvel_del2            =   3.4596374842721E-10
(PID.TID 0000.0001) %MON dynstat_theta_max            =   2.3006248530830E+01
(PID.TID 0000.0001) %MON dynstat_theta_min            =   9.9999999999994E-01
(PID.TID 0000.0001) %MON dynstat_theta_mean           =   4.0799380583594E+00
(PID.TID 0000.0001) %MON dynstat_theta_sd             =   4.6722026321451E+00
(PID.TID 0000.0001) %MON dynstat_theta_del2           =   2.2410011512946E-08
(PID.TID 0000.0001) %MON dynstat_salt_max             =   3.4500000000000E+01
(PID.TID 0000.0001) %MON dynstat_salt_min             =   3.4500000000000E+01
(PID.TID 0000.0001) %MON dynstat_salt_mean            =   3.4500000000000E+01
(PID.TID 0000.0001) %MON dynstat_salt_sd              =   1.2084054617625E-13
(PID.TID 0000.0001) %MON dynstat_salt_del2            =   3.1295028259496E-17
(PID.TID 0000.0001) %MON trAdv_CFL_u_max              =   3.5611229031911E-04
(PID.TID 0000.0001) %MON trAdv_CFL_v_max              =   2.3724334647490E-05
(PID.TID 0000.0001) %MON trAdv_CFL_w_max              =   3.4485413105780E-04
(PID.TID 0000.0001) %MON advcfl_uvel_max              =   3.5610777041936E-04
(PID.TID 0000.0001) %MON advcfl_vvel_max              =   2.3516101570803E-05
(PID.TID 0000.0001) %MON advcfl_wvel_max              =   4.8406478216134E-04
(PID.TID 0000.0001) %MON advcfl_W_hf_max              =   1.1433416213073E-04
(PID.TID 0000.0001) %MON pe_b_mean                    =   3.1553318591472E-10
(PID.TID 0000.0001) %MON ke_max                       =   2.8048047609629E-04
(PID.TID 0000.0001) %MON ke_mean                      =   3.1868607173700E-07
(PID.TID 0000.0001) %MON ke_vol                       =   7.5744557036543E+16
(PID.TID 0000.0001) %MON vort_r_min                   =  -1.8313660689800E-07
(PID.TID 0000.0001) %MON vort_r_max                   =   1.5557704492834E-07
(PID.TID 0000.0001) %MON vort_a_mean                  =   9.3555569952478E-05
(PID.TID 0000.0001) %MON vort_a_sd                    =   2.5194000015654E-05
(PID.TID 0000.0001) %MON vort_p_mean                  =   9.7478626213493E-05
(PID.TID 0000.0001) %MON vort_p_sd                    =   3.9497946341027E-05
(PID.TID 0000.0001) %MON surfExpan_theta_mean         =   2.6617128828334E-11
(PID.TID 0000.0001) %MON surfExpan_salt_mean          =   1.4491999942764E-22
(PID.TID 0000.0001) // =======================================================
(PID.TID 0000.0001) // End MONITOR dynamic field statistics
(PID.TID 0000.0001) // =======================================================
 cg2d: Sum(rhs),rhsMax =  -7.34134975033385E-15  4.28445462902603E-03
(PID.TID 0000.0001) // =======================================================
(PID.TID 0000.0001) // Begin MONITOR dynamic field statistics
(PID.TID 0000.0001) // =======================================================
(PID.TID 0000.0001) %MON time_tsnumber                =                     3
(PID.TID 0000.0001) %MON time_secondsf                =   3.6000000000000E+03
(PID.TID 0000.0001) %MON dynstat_eta_max              =   6.6782973151397E-03
(PID.TID 0000.0001) %MON dynstat_eta_min              =  -6.6830376282464E-03
(PID.TID 0000.0001) %MON dynstat_eta_mean             =  -4.5924014699282E-20
(PID.TID 0000.0001) %MON dynstat_eta_sd               =   7.9103029789593E-04
(PID.TID 0000.0001) %MON dynstat_eta_del2             =   9.7130647979760E-06
(PID.TID 0000.0001) %MON dynstat_uvel_max             =   3.4992853197166E-02
(PID.TID 0000.0001) %MON dynstat_uvel_min             =  -2.1560887698981E-02
(PID.TID 0000.0001) %MON dynstat_uvel_mean            =   2.6984534069249E-05
(PID.TID 0000.0001) %MON dynstat_uvel_sd              =   1.1938000370875E-03
(PID.TID 0000.0001) %MON dynstat_uvel_del2            =   2.9759892427515E-07
(PID.TID 0000.0001) %MON dynstat_vvel_max             =   2.0661835881351E-03
(PID.TID 0000.0001) %MON dynstat_vvel_min             =  -5.7995126874010E-03
(PID.TID 0000.0001) %MON dynstat_vvel_mean            =  -5.5177941265912E-06
(PID.TID 0000.0001) %MON dynstat_vvel_sd              =   1.8404015688425E-04
(PID.TID 0000.0001) %MON dynstat_vvel_del2            =   2.1570094216758E-07
(PID.TID 0000.0001) %MON dynstat_wvel_max             =   2.3446810680173E-06
(PID.TID 0000.0001) %MON dynstat_wvel_min             =  -2.3479738068145E-06
(PID.TID 0000.0001) %MON dynstat_wvel_mean            =  -8.6089443938433E-26
(PID.TID 0000.0001) %MON dynstat_wvel_sd              =   8.1328292955384E-08
(PID.TID 0000.0001) %MON dynstat_wvel_del2            =   6.6607790699824E-10
(PID.TID 0000.0001) %MON dynstat_theta_max            =   2.3009370593295E+01
(PID.TID 0000.0001) %MON dynstat_theta_min            =   9.9999999999760E-01
(PID.TID 0000.0001) %MON dynstat_theta_mean           =   4.0799291663811E+00
(PID.TID 0000.0001) %MON dynstat_theta_sd             =   4.6721666509497E+00
(PID.TID 0000.0001) %MON dynstat_theta_del2           =   5.6708721475403E-08
(PID.TID 0000.0001) %MON dynstat_salt_max             =   3.4500000000000E+01
(PID.TID 0000.0001) %MON dynstat_salt_min             =   3.4500000000000E+01
(PID.TID 0000.0001) %MON dynstat_salt_mean            =   3.4500000000000E+01
(PID.TID 0000.0001) %MON dynstat_salt_sd              =   1.2084810706124E-13
(PID.TID 0000.0001) %MON dynstat_salt_del2            =   4.5134718180425E-17
(PID.TID 0000.0001) %MON trAdv_CFL_u_max              =   5.2786396813933E-04
(PID.TID 0000.0001) %MON trAdv_CFL_v_max              =   6.3151644324341E-05
(PID.TID 0000.0001) %MON trAdv_CFL_w_max              =   5.0506587099370E-04
(PID.TID 0000.0001) %MON advcfl_uvel_max              =   5.2785726830818E-04
(PID.TID 0000.0001) %MON advcfl_vvel_max              =   6.2597350120060E-05
(PID.TID 0000.0001) %MON advcfl_wvel_max              =   5.6351371363547E-04
(PID.TID 0000.0001) %MON advcfl_W_hf_max              =   2.3223964452196E-04
(PID.TID 0000.0001) %MON pe_b_mean                    =   9.8871682316320E-10
(PID.TID 0000.0001) %MON ke_max                       =   6.2844875916198E-04
(PID.TID 0000.0001) %MON ke_mean                      =   7.1381192354744E-07
(PID.TID 0000.0001) %MON ke_vol                       =   7.5744557036543E+16
(PID.TID 0000.0001) %MON vort_r_min                   =  -2.8669058200277E-07
(PID.TID 0000.0001) %MON vort_r_max                   =   2.4883596561021E-07
(PID.TID 0000.0001) %MON vort_a_mean                  =   9.3555569952476E-05
(PID.TID 0000.0001) %MON vort_a_sd                    =   2.5194004636830E-05
(PID.TID 0000.0001) %MON vort_p_mean                  =   9.7478626213492E-05
(PID.TID 0000.0001) %MON vort_p_sd                    =   3.9497955998094E-05
(PID.TID 0000.0001) %MON surfExpan_theta_mean         =   1.0465626876109E-10
(PID.TID 0000.0001) %MON surfExpan_salt_mean          =  -1.9263028730505E-22
(PID.TID 0000.0001) // =======================================================
(PID.TID 0000.0001) // End MONITOR dynamic field statistics
(PID.TID 0000.0001) // =======================================================
 cg2d: Sum(rhs),rhsMax =  -5.41233724504764E-16  6.02406791961946E-03
(PID.TID 0000.0001) // =======================================================
(PID.TID 0000.0001) // Begin MONITOR dynamic field statistics
(PID.TID 0000.0001) // =======================================================
(PID.TID 0000.0001) %MON time_tsnumber                =                     4
(PID.TID 0000.0001) %MON time_secondsf                =   4.8000000000000E+03
(PID.TID 0000.0001) %MON dynstat_eta_max              =   9.3774291563527E-03
(PID.TID 0000.0001) %MON dynstat_eta_min              =  -9.3933704910479E-03
(PID.TID 0000.0001) %MON dynstat_eta_mean             =  -1.8320750544926E-22
(PID.TID 0000.0001) %MON dynstat_eta_sd               =   1.1548739866606E-03
(PID.TID 0000.0001) %MON dynstat_eta_del2             =   1.2650570048076E-05
(PID.TID 0000.0001) %MON dynstat_uvel_max             =   4.5882920821460E-02
(PID.TID 0000.0001) %MON dynstat_uvel_min             =  -2.8662420735762E-02
(PID.TID 0000.0001) %MON dynstat_uvel_mean            =   3.3737761753077E-05
(PID.TID 0000.0001) %MON dynstat_uvel_sd              =   1.5675789188649E-03
(PID.TID 0000.0001) %MON dynstat_uvel_del2            =   4.5702522520541E-07
(PID.TID 0000.0001) %MON dynstat_vvel_max             =   3.7769870886395E-03
(PID.TID 0000.0001) %MON dynstat_vvel_min             =  -1.0786167894522E-02
(PID.TID 0000.0001) %MON dynstat_vvel_mean            =  -1.0025147462876E-05
(PID.TID 0000.0001) %MON dynstat_vvel_sd              =   3.4221477481820E-04
(PID.TID 0000.0001) %MON dynstat_vvel_del2            =   3.8542406357428E-07
(PID.TID 0000.0001) %MON dynstat_wvel_max             =   3.3189971641986E-06
(PID.TID 0000.0001) %MON dynstat_wvel_min             =  -3.3145999266832E-06
(PID.TID 0000.0001) %MON dynstat_wvel_mean            =  -3.9372660379426E-26
(PID.TID 0000.0001) %MON dynstat_wvel_sd              =   1.5154536875813E-07
(PID.TID 0000.0001) %MON dynstat_wvel_del2            =   1.0797838476721E-09
(PID.TID 0000.0001) %MON dynstat_theta_max            =   2.3012491188086E+01
(PID.TID 0000.0001) %MON dynstat_theta_min            =   9.9999999999742E-01
(PID.TID 0000.0001) %MON dynstat_theta_mean           =   4.0799202784728E+00
(PID.TID 0000.0001) %MON dynstat_theta_sd             =   4.6721306948783E+00
(PID.TID 0000.0001) %MON dynstat_theta_del2           =   1.1332297399892E-07
(PID.TID 0000.0001) %MON dynstat_salt_max             =   3.4500000000000E+01
(PID.TID 0000.0001) %MON dynstat_salt_min             =   3.4500000000000E+01
(PID.TID 0000.0001) %MON dynstat_salt_mean            =   3.4500000000000E+01
(PID.TID 0000.0001) %MON dynstat_salt_sd              =   1.2084869545269E-13
(PID.TID 0000.0001) %MON dynstat_salt_del2            =   5.7174365299308E-17
(PID.TID 0000.0001) %MON trAdv_CFL_u_max              =   6.9144326574924E-04
(PID.TID 0000.0001) %MON trAdv_CFL_v_max              =   1.1745197833212E-04
(PID.TID 0000.0001) %MON trAdv_CFL_w_max              =   6.5480016720247E-04
(PID.TID 0000.0001) %MON advcfl_uvel_max              =   6.9143448971335E-04
(PID.TID 0000.0001) %MON advcfl_vvel_max              =   1.1642107958725E-04
(PID.TID 0000.0001) %MON advcfl_wvel_max              =   6.4338663552660E-04
(PID.TID 0000.0001) %MON advcfl_W_hf_max              =   3.9827965970384E-04
(PID.TID 0000.0001) %MON pe_b_mean                    =   2.1074383834574E-09
(PID.TID 0000.0001) %MON ke_max                       =   1.1086823958322E-03
(PID.TID 0000.0001) %MON ke_mean                      =   1.2594772476838E-06
(PID.TID 0000.0001) %MON ke_vol                       =   7.5744557036543E+16
(PID.TID 0000.0001) %MON vort_r_min                   =  -3.9487004871548E-07
(PID.TID 0000.0001) %MON vort_r_max                   =   3.4785951176186E-07
(PID.TID 0000.0001) %MON vort_a_mean                  =   9.3555569952476E-05
(PID.TID 0000.0001) %MON vort_a_sd                    =   2.5194008392160E-05
(PID.TID 0000.0001) %MON vort_p_mean                  =   9.7478626213492E-05
(PID.TID 0000.0001) %MON vort_p_sd                    =   3.9497964420296E-05
(PID.TID 0000.0001) %MON surfExpan_theta_mean         =   2.5346505046321E-10
(PID.TID 0000.0001) %MON surfExpan_salt_mean          =   5.4076629416053E-22
(PID.TID 0000.0001) // =======================================================
(PID.TID 0000.0001) // End MONITOR dynamic field statistics
(PID.TID 0000.0001) // =======================================================
 cg2d: Sum(rhs),rhsMax =   1.48631107421693E-14  8.05529736580132E-03
(PID.TID 0000.0001) // =======================================================
(PID.TID 0000.0001) // Begin MONITOR dynamic field statistics
(PID.TID 0000.0001) // =======================================================
(PID.TID 0000.0001) %MON time_tsnumber                =                     5
(PID.TID 0000.0001) %MON time_secondsf                =   6.0000000000000E+03
(PID.TID 0000.0001) %MON dynstat_eta_max              =   1.2643861907712E-02
(PID.TID 0000.0001) %MON dynstat_eta_min              =  -1.1711964193702E-02
(PID.TID 0000.0001) %MON dynstat_eta_mean             =   1.9358926409139E-20
(PID.TID 0000.0001) %MON dynstat_eta_sd               =   1.5069130676735E-03
(PID.TID 0000.0001) %MON dynstat_eta_del2             =   1.4854736967685E-05
(PID.TID 0000.0001) %MON dynstat_uvel_max             =   5.6100301278782E-02
(PID.TID 0000.0001) %MON dynstat_uvel_min             =  -3.5686668879014E-02
(PID.TID 0000.0001) %MON dynstat_uvel_mean            =   3.8737106051382E-05
(PID.TID 0000.0001) %MON dynstat_uvel_sd              =   1.9208363791873E-03
(PID.TID 0000.0001) %MON dynstat_uvel_del2            =   6.4315629803560E-07
(PID.TID 0000.0001) %MON dynstat_vvel_max             =   5.8662072094415E-03
(PID.TID 0000.0001) %MON dynstat_vvel_min             =  -1.7063297354971E-02
(PID.TID 0000.0001) %MON dynstat_vvel_mean            =  -1.5372830755786E-05
(PID.TID 0000.0001) %MON dynstat_vvel_sd              =   5.4141396297328E-04
(PID.TID 0000.0001) %MON dynstat_vvel_del2            =   5.9694112941832E-07
(PID.TID 0000.0001) %MON dynstat_wvel_max             =   4.9190996007361E-06
(PID.TID 0000.0001) %MON dynstat_wvel_min             =  -4.9206429912191E-06
(PID.TID 0000.0001) %MON dynstat_wvel_mean            =   3.2803750202133E-25
(PID.TID 0000.0001) %MON dynstat_wvel_sd              =   2.4137855704256E-07
(PID.TID 0000.0001) %MON dynstat_wvel_del2            =   1.5621987074121E-09
(PID.TID 0000.0001) %MON dynstat_theta_max            =   2.3015610315897E+01
(PID.TID 0000.0001) %MON dynstat_theta_min            =   9.9999999998598E-01
(PID.TID 0000.0001) %MON dynstat_theta_mean           =   4.0799113946025E+00
(PID.TID 0000.0001) %MON dynstat_theta_sd             =   4.6720947627263E+00
(PID.TID 0000.0001) %MON dynstat_theta_del2           =   1.9593851985147E-07
(PID.TID 0000.0001) %MON dynstat_salt_max             =   3.4500000000000E+01
(PID.TID 0000.0001) %MON dynstat_salt_min             =   3.4500000000000E+01
(PID.TID 0000.0001) %MON dynstat_salt_mean            =   3.4500000000000E+01
(PID.TID 0000.0001) %MON dynstat_salt_sd              =   1.2086769048989E-13
(PID.TID 0000.0001) %MON dynstat_salt_del2            =   6.8276869580293E-17
(PID.TID 0000.0001) %MON trAdv_CFL_u_max              =   8.4470488916059E-04
(PID.TID 0000.0001) %MON trAdv_CFL_v_max              =   1.8580445351944E-04
(PID.TID 0000.0001) %MON trAdv_CFL_w_max              =   7.9371204346516E-04
(PID.TID 0000.0001) %MON advcfl_uvel_max              =   8.4469416787543E-04
(PID.TID 0000.0001) %MON advcfl_vvel_max              =   1.8417361187125E-04
(PID.TID 0000.0001) %MON advcfl_wvel_max              =   6.7026773132135E-04
(PID.TID 0000.0001) %MON advcfl_W_hf_max              =   5.9047715894629E-04
(PID.TID 0000.0001) %MON pe_b_mean                    =   3.5880797368006E-09
(PID.TID 0000.0001) %MON ke_max                       =   1.7140656899137E-03
(PID.TID 0000.0001) %MON ke_mean                      =   1.9484335107738E-06
(PID.TID 0000.0001) %MON ke_vol                       =   7.5744557036543E+16
(PID.TID 0000.0001) %MON vort_r_min                   =  -5.0644303581522E-07
(PID.TID 0000.0001) %MON vort_r_max                   =   4.5106662475467E-07
(PID.TID 0000.0001) %MON vort_a_mean                  =   9.3555569952476E-05
(PID.TID 0000.0001) %MON vort_a_sd                    =   2.5194011094942E-05
(PID.TID 0000.0001) %MON vort_p_mean                  =   9.7478626213492E-05
(PID.TID 0000.0001) %MON vort_p_sd                    =   3.9497970540011E-05
(PID.TID 0000.0001) %MON surfExpan_theta_mean         =   4.8573344152506E-10
(PID.TID 0000.0001) %MON surfExpan_salt_mean          =   8.4715579912328E-22
(PID.TID 0000.0001) // =======================================================
(PID.TID 0000.0001) // End MONITOR dynamic field statistics
(PID.TID 0000.0001) // =======================================================
 cg2d: Sum(rhs),rhsMax =  -4.03149735817010E-15  1.00620519432849E-02
(PID.TID 0000.0001) // =======================================================
(PID.TID 0000.0001) // Begin MONITOR dynamic field statistics
(PID.TID 0000.0001) // =======================================================
(PID.TID 0000.0001) %MON time_tsnumber                =                     6
(PID.TID 0000.0001) %MON time_secondsf                =   7.2000000000000E+03
(PID.TID 0000.0001) %MON dynstat_eta_max              =   1.5865182761912E-02
(PID.TID 0000.0001) %MON dynstat_eta_min              =  -1.4019367949605E-02
(PID.TID 0000.0001) %MON dynstat_eta_mean             =  -1.5053550031081E-19
(PID.TID 0000.0001) %MON dynstat_eta_sd               =   1.8277660305129E-03
(PID.TID 0000.0001) %MON dynstat_eta_del2             =   1.6302554539222E-05
(PID.TID 0000.0001) %MON dynstat_uvel_max             =   6.5495536834129E-02
(PID.TID 0000.0001) %MON dynstat_uvel_min             =  -4.2615845771126E-02
(PID.TID 0000.0001) %MON dynstat_uvel_mean            =   4.1764430233202E-05
(PID.TID 0000.0001) %MON dynstat_uvel_sd              =   2.2492685664964E-03
(PID.TID 0000.0001) %MON dynstat_uvel_del2            =   8.4793911699226E-07
(PID.TID 0000.0001) %MON dynstat_vvel_max             =   8.3204016078406E-03
(PID.TID 0000.0001) %MON dynstat_vvel_min             =  -2.4533234024399E-02
(PID.TID 0000.0001) %MON dynstat_vvel_mean            =  -2.1256669901722E-05
(PID.TID 0000.0001) %MON dynstat_vvel_sd              =   7.7866921022429E-04
(PID.TID 0000.0001) %MON dynstat_vvel_del2            =   8.4977257491454E-07
(PID.TID 0000.0001) %MON dynstat_wvel_max             =   6.5954858594500E-06
(PID.TID 0000.0001) %MON dynstat_wvel_min             =  -6.5933615578085E-06
(PID.TID 0000.0001) %MON dynstat_wvel_mean            =  -1.6010188531489E-24
(PID.TID 0000.0001) %MON dynstat_wvel_sd              =   3.4443150827674E-07
(PID.TID 0000.0001) %MON dynstat_wvel_del2            =   2.0841028323947E-09
(PID.TID 0000.0001) %MON dynstat_theta_max            =   2.3018727977417E+01
(PID.TID 0000.0001) %MON dynstat_theta_min            =   9.9999999985745E-01
(PID.TID 0000.0001) %MON dynstat_theta_mean           =   4.0799025147355E+00
(PID.TID 0000.0001) %MON dynstat_theta_sd             =   4.6720588535383E+00
(PID.TID 0000.0001) %MON dynstat_theta_del2           =   3.0663329810379E-07
(PID.TID 0000.0001) %MON dynstat_salt_max             =   3.4500000000000E+01
(PID.TID 0000.0001) %MON dynstat_salt_min             =   3.4500000000000E+01
(PID.TID 0000.0001) %MON dynstat_salt_mean            =   3.4500000000000E+01
(PID.TID 0000.0001) %MON dynstat_salt_sd              =   1.2086526367048E-13
(PID.TID 0000.0001) %MON dynstat_salt_del2            =   7.8784608931974E-17
(PID.TID 0000.0001) %MON trAdv_CFL_u_max              =   9.8512413696104E-04
(PID.TID 0000.0001) %MON trAdv_CFL_v_max              =   2.6714556079866E-04
(PID.TID 0000.0001) %MON trAdv_CFL_w_max              =   9.2186495468188E-04
(PID.TID 0000.0001) %MON advcfl_uvel_max              =   9.8511163342646E-04
(PID.TID 0000.0001) %MON advcfl_vvel_max              =   2.6480077250954E-04
(PID.TID 0000.0001) %MON advcfl_wvel_max              =   7.4210811358087E-04
(PID.TID 0000.0001) %MON advcfl_W_hf_max              =   7.9145830313400E-04
(PID.TID 0000.0001) %MON pe_b_mean                    =   5.2786989063772E-09
(PID.TID 0000.0001) %MON ke_max                       =   2.4355666408664E-03
(PID.TID 0000.0001) %MON ke_mean                      =   2.7716389986275E-06
(PID.TID 0000.0001) %MON ke_vol                       =   7.5744557036543E+16
(PID.TID 0000.0001) %MON vort_r_min                   =  -6.2035343131078E-07
(PID.TID 0000.0001) %MON vort_r_max                   =   5.5719070679302E-07
(PID.TID 0000.0001) %MON vort_a_mean                  =   9.3555569952477E-05
(PID.TID 0000.0001) %MON vort_a_sd                    =   2.5194012637566E-05
(PID.TID 0000.0001) %MON vort_p_mean                  =   9.7478626213492E-05
(PID.TID 0000.0001) %MON vort_p_sd                    =   3.9497973273326E-05
(PID.TID 0000.0001) %MON surfExpan_theta_mean         =   8.0583319561014E-10
(PID.TID 0000.0001) %MON surfExpan_salt_mean          =   1.8071762480066E-21
(PID.TID 0000.0001) // =======================================================
(PID.TID 0000.0001) // End MONITOR dynamic field statistics
(PID.TID 0000.0001) // =======================================================
 cg2d: Sum(rhs),rhsMax =  -7.50441375707567E-15  1.18376455794608E-02
(PID.TID 0000.0001) // =======================================================
(PID.TID 0000.0001) // Begin MONITOR dynamic field statistics
(PID.TID 0000.0001) // =======================================================
(PID.TID 0000.0001) %MON time_tsnumber                =                     7
(PID.TID 0000.0001) %MON time_secondsf                =   8.4000000000000E+03
(PID.TID 0000.0001) %MON dynstat_eta_max              =   1.8710156946654E-02
(PID.TID 0000.0001) %MON dynstat_eta_min              =  -1.5954952170495E-02
(PID.TID 0000.0001) %MON dynstat_eta_mean             =   3.9267475334625E-20
(PID.TID 0000.0001) %MON dynstat_eta_sd               =   2.1082241743487E-03
(PID.TID 0000.0001) %MON dynstat_eta_del2             =   1.7039768182629E-05
(PID.TID 0000.0001) %MON dynstat_uvel_max             =   7.3931209405622E-02
(PID.TID 0000.0001) %MON dynstat_uvel_min             =  -4.9435768793872E-02
(PID.TID 0000.0001) %MON dynstat_uvel_mean            =   4.2734346690105E-05
(PID.TID 0000.0001) %MON dynstat_uvel_sd              =   2.5489997672836E-03
(PID.TID 0000.0001) %MON dynstat_uvel_del2            =   1.0619916990625E-06
(PID.TID 0000.0001) %MON dynstat_vvel_max             =   1.1365636893728E-02
(PID.TID 0000.0001) %MON dynstat_vvel_min             =  -3.3079795272976E-02
(PID.TID 0000.0001) %MON dynstat_vvel_mean            =  -2.7341617567702E-05
(PID.TID 0000.0001) %MON dynstat_vvel_sd              =   1.0504761458554E-03
(PID.TID 0000.0001) %MON dynstat_vvel_del2            =   1.1427099475265E-06
(PID.TID 0000.0001) %MON dynstat_wvel_max             =   8.1997037957167E-06
(PID.TID 0000.0001) %MON dynstat_wvel_min             =  -8.1895765028888E-06
(PID.TID 0000.0001) %MON dynstat_wvel_mean            =   4.9450429409185E-24
(PID.TID 0000.0001) %MON dynstat_wvel_sd              =   4.5347701024407E-07
(PID.TID 0000.0001) %MON dynstat_wvel_del2            =   2.6172700361939E-09
(PID.TID 0000.0001) %MON dynstat_theta_max            =   2.3021844171098E+01
(PID.TID 0000.0001) %MON dynstat_theta_min            =   9.9999999959636E-01
(PID.TID 0000.0001) %MON dynstat_theta_mean           =   4.0798936388382E+00
(PID.TID 0000.0001) %MON dynstat_theta_sd             =   4.6720229665961E+00
(PID.TID 0000.0001) %MON dynstat_theta_del2           =   4.4592220045242E-07
(PID.TID 0000.0001) %MON dynstat_salt_max             =   3.4500000000000E+01
(PID.TID 0000.0001) %MON dynstat_salt_min             =   3.4500000000000E+01
(PID.TID 0000.0001) %MON dynstat_salt_mean            =   3.4500000000000E+01
(PID.TID 0000.0001) %MON dynstat_salt_sd              =   1.2086304617547E-13
(PID.TID 0000.0001) %MON dynstat_salt_del2            =   8.8684603156785E-17
(PID.TID 0000.0001) %MON trAdv_CFL_u_max              =   1.1105695815692E-03
(PID.TID 0000.0001) %MON trAdv_CFL_v_max              =   3.6021017247523E-04
(PID.TID 0000.0001) %MON trAdv_CFL_w_max              =   1.0393809427303E-03
(PID.TID 0000.0001) %MON advcfl_uvel_max              =   1.1105554858378E-03
(PID.TID 0000.0001) %MON advcfl_vvel_max              =   3.5704853807818E-04
(PID.TID 0000.0001) %MON advcfl_wvel_max              =   9.2261083496110E-04
(PID.TID 0000.0001) %MON advcfl_W_hf_max              =   9.8396445548601E-04
(PID.TID 0000.0001) %MON pe_b_mean                    =   7.0229449718830E-09
(PID.TID 0000.0001) %MON ke_max                       =   3.2624114070324E-03
(PID.TID 0000.0001) %MON ke_mean                      =   3.7183879402574E-06
(PID.TID 0000.0001) %MON ke_vol                       =   7.5744557036543E+16
(PID.TID 0000.0001) %MON vort_r_min                   =  -7.3578018295270E-07
(PID.TID 0000.0001) %MON vort_r_max                   =   6.6530232411278E-07
(PID.TID 0000.0001) %MON vort_a_mean                  =   9.3555569952476E-05
(PID.TID 0000.0001) %MON vort_a_sd                    =   2.5194012996524E-05
(PID.TID 0000.0001) %MON vort_p_mean                  =   9.7478626213492E-05
(PID.TID 0000.0001) %MON vort_p_sd                    =   3.9497971744170E-05
(PID.TID 0000.0001) %MON surfExpan_theta_mean         =   1.2090886494969E-09
(PID.TID 0000.0001) %MON surfExpan_salt_mean          =  -1.7974850957815E-21
(PID.TID 0000.0001) // =======================================================
(PID.TID 0000.0001) // End MONITOR dynamic field statistics
(PID.TID 0000.0001) // =======================================================
 cg2d: Sum(rhs),rhsMax =   2.32990710058445E-14  1.32520276170039E-02
(PID.TID 0000.0001) // =======================================================
(PID.TID 0000.0001) // Begin MONITOR dynamic field statistics
(PID.TID 0000.0001) // =======================================================
(PID.TID 0000.0001) %MON time_tsnumber                =                     8
(PID.TID 0000.0001) %MON time_secondsf                =   9.6000000000000E+03
(PID.TID 0000.0001) %MON dynstat_eta_max              =   2.0965724071112E-02
(PID.TID 0000.0001) %MON dynstat_eta_min              =  -1.7598356670061E-02
(PID.TID 0000.0001) %MON dynstat_eta_mean             =   1.9502438955074E-19
(PID.TID 0000.0001) %MON dynstat_eta_sd               =   2.3461308166148E-03
(PID.TID 0000.0001) %MON dynstat_eta_del2             =   1.7175075290417E-05
(PID.TID 0000.0001) %MON dynstat_uvel_max             =   8.1283820430972E-02
(PID.TID 0000.0001) %MON dynstat_uvel_min             =  -5.6136096233777E-02
(PID.TID 0000.0001) %MON dynstat_uvel_mean            =   4.1692231761730E-05
(PID.TID 0000.0001) %MON dynstat_uvel_sd              =   2.8166584354368E-03
(PID.TID 0000.0001) %MON dynstat_uvel_del2            =   1.2765713119500E-06
(PID.TID 0000.0001) %MON dynstat_vvel_max             =   1.4808795980383E-02
(PID.TID 0000.0001) %MON dynstat_vvel_min             =  -4.2570187475846E-02
(PID.TID 0000.0001) %MON dynstat_vvel_mean            =  -3.3282152731392E-05
(PID.TID 0000.0001) %MON dynstat_vvel_sd              =   1.3528504332200E-03
(PID.TID 0000.0001) %MON dynstat_vvel_del2            =   1.4729005536436E-06
(PID.TID 0000.0001) %MON dynstat_wvel_max             =   9.6198414737953E-06
(PID.TID 0000.0001) %MON dynstat_wvel_min             =  -9.6059240594305E-06
(PID.TID 0000.0001) %MON dynstat_wvel_mean            =   7.9422612118746E-24
(PID.TID 0000.0001) %MON dynstat_wvel_sd              =   5.6187632189630E-07
(PID.TID 0000.0001) %MON dynstat_wvel_del2            =   3.1377811386838E-09
(PID.TID 0000.0001) %MON dynstat_theta_max            =   2.3024958899911E+01
(PID.TID 0000.0001) %MON dynstat_theta_min            =   9.9999999916333E-01
(PID.TID 0000.0001) %MON dynstat_theta_mean           =   4.0798847668813E+00
(PID.TID 0000.0001) %MON dynstat_theta_sd             =   4.6719871014389E+00
(PID.TID 0000.0001) %MON dynstat_theta_del2           =   6.1293858262829E-07
(PID.TID 0000.0001) %MON dynstat_salt_max             =   3.4500000000000E+01
(PID.TID 0000.0001) %MON dynstat_salt_min             =   3.4500000000000E+01
(PID.TID 0000.0001) %MON dynstat_salt_mean            =   3.4500000000000E+01
(PID.TID 0000.0001) %MON dynstat_salt_sd              =   1.2082284778856E-13
(PID.TID 0000.0001) %MON dynstat_salt_del2            =   9.8563905858084E-17
(PID.TID 0000.0001) %MON trAdv_CFL_u_max              =   1.2191352148687E-03
(PID.TID 0000.0001) %MON trAdv_CFL_v_max              =   4.6355228157970E-04
(PID.TID 0000.0001) %MON trAdv_CFL_w_max              =   1.1527108871317E-03
(PID.TID 0000.0001) %MON advcfl_uvel_max              =   1.2191197411850E-03
(PID.TID 0000.0001) %MON advcfl_vvel_max              =   4.5948359349074E-04
(PID.TID 0000.0001) %MON advcfl_wvel_max              =   1.0824012910037E-03
(PID.TID 0000.0001) %MON advcfl_W_hf_max              =   1.1543809768554E-03
(PID.TID 0000.0001) %MON pe_b_mean                    =   8.6974138514399E-09
(PID.TID 0000.0001) %MON ke_max                       =   4.1822381133512E-03
(PID.TID 0000.0001) %MON ke_mean                      =   4.7764315677649E-06
(PID.TID 0000.0001) %MON ke_vol                       =   7.5744557036543E+16
(PID.TID 0000.0001) %MON vort_r_min                   =  -8.5213358046711E-07
(PID.TID 0000.0001) %MON vort_r_max                   =   7.7471233563010E-07
(PID.TID 0000.0001) %MON vort_a_mean                  =   9.3555569952477E-05
(PID.TID 0000.0001) %MON vort_a_sd                    =   2.5194012224501E-05
(PID.TID 0000.0001) %MON vort_p_mean                  =   9.7478626213493E-05
(PID.TID 0000.0001) %MON vort_p_sd                    =   3.9497965451481E-05
(PID.TID 0000.0001) %MON surfExpan_theta_mean         =   1.6818223047853E-09
(PID.TID 0000.0001) %MON surfExpan_salt_mean          =   1.4411488831971E-21
(PID.TID 0000.0001) // =======================================================
(PID.TID 0000.0001) // End MONITOR dynamic field statistics
(PID.TID 0000.0001) // =======================================================
 cg2d: Sum(rhs),rhsMax =  -1.81018394718180E-15  1.42030339277927E-02
(PID.TID 0000.0001) // =======================================================
(PID.TID 0000.0001) // Begin MONITOR dynamic field statistics
(PID.TID 0000.0001) // =======================================================
(PID.TID 0000.0001) %MON time_tsnumber                =                     9
(PID.TID 0000.0001) %MON time_secondsf                =   1.0800000000000E+04
(PID.TID 0000.0001) %MON dynstat_eta_max              =   2.2473046326075E-02
(PID.TID 0000.0001) %MON dynstat_eta_min              =  -1.8673153219455E-02
(PID.TID 0000.0001) %MON dynstat_eta_mean             =  -8.8264032573212E-20
(PID.TID 0000.0001) %MON dynstat_eta_sd               =   2.5430574497063E-03
(PID.TID 0000.0001) %MON dynstat_eta_del2             =   1.6874909856647E-05
(PID.TID 0000.0001) %MON dynstat_uvel_max             =   8.7445653189363E-02
(PID.TID 0000.0001) %MON dynstat_uvel_min             =  -6.2709475949076E-02
(PID.TID 0000.0001) %MON dynstat_uvel_mean            =   3.8798539501844E-05
(PID.TID 0000.0001) %MON dynstat_uvel_sd              =   3.0494571151780E-03
(PID.TID 0000.0001) %MON dynstat_uvel_del2            =   1.4853434520378E-06
(PID.TID 0000.0001) %MON dynstat_vvel_max             =   1.8624237334112E-02
(PID.TID 0000.0001) %MON dynstat_vvel_min             =  -5.2857029334021E-02
(PID.TID 0000.0001) %MON dynstat_vvel_mean            =  -3.8743157266016E-05
(PID.TID 0000.0001) %MON dynstat_vvel_sd              =   1.6813882326304E-03
(PID.TID 0000.0001) %MON dynstat_vvel_del2            =   1.8360361188545E-06
(PID.TID 0000.0001) %MON dynstat_wvel_max             =   1.0790110535582E-05
(PID.TID 0000.0001) %MON dynstat_wvel_min             =  -1.0798663088499E-05
(PID.TID 0000.0001) %MON dynstat_wvel_mean            =   1.0711811664264E-23
(PID.TID 0000.0001) %MON dynstat_wvel_sd              =   6.6446916609960E-07
(PID.TID 0000.0001) %MON dynstat_wvel_del2            =   3.6278489525536E-09
(PID.TID 0000.0001) %MON dynstat_theta_max            =   2.3028072163172E+01
(PID.TID 0000.0001) %MON dynstat_theta_min            =   9.9999999852154E-01
(PID.TID 0000.0001) %MON dynstat_theta_mean           =   4.0798758988433E+00
(PID.TID 0000.0001) %MON dynstat_theta_sd             =   4.6719512577531E+00
(PID.TID 0000.0001) %MON dynstat_theta_del2           =   8.0586780130283E-07
(PID.TID 0000.0001) %MON dynstat_salt_max             =   3.4500000000000E+01
(PID.TID 0000.0001) %MON dynstat_salt_min             =   3.4500000000000E+01
(PID.TID 0000.0001) %MON dynstat_salt_mean            =   3.4500000000000E+01
(PID.TID 0000.0001) %MON dynstat_salt_sd              =   1.2078935759699E-13
(PID.TID 0000.0001) %MON dynstat_salt_del2            =   1.0834631219512E-16
(PID.TID 0000.0001) %MON trAdv_CFL_u_max              =   1.3091704361196E-03
(PID.TID 0000.0001) %MON trAdv_CFL_v_max              =   5.7556703407080E-04
(PID.TID 0000.0001) %MON trAdv_CFL_w_max              =   1.2958395706199E-03
(PID.TID 0000.0001) %MON advcfl_uvel_max              =   1.3091538196779E-03
(PID.TID 0000.0001) %MON advcfl_vvel_max              =   5.7051517082046E-04
(PID.TID 0000.0001) %MON advcfl_wvel_max              =   1.2150394473698E-03
(PID.TID 0000.0001) %MON advcfl_W_hf_max              =   1.2958395706199E-03
(PID.TID 0000.0001) %MON pe_b_mean                    =   1.0218756023364E-08
(PID.TID 0000.0001) %MON ke_max                       =   5.1812879102877E-03
(PID.TID 0000.0001) %MON ke_mean                      =   5.9321490633182E-06
(PID.TID 0000.0001) %MON ke_vol                       =   7.5744557036543E+16
(PID.TID 0000.0001) %MON vort_r_min                   =  -9.6900933170345E-07
(PID.TID 0000.0001) %MON vort_r_max                   =   8.8482318266598E-07
(PID.TID 0000.0001) %MON vort_a_mean                  =   9.3555569952477E-05
(PID.TID 0000.0001) %MON vort_a_sd                    =   2.5194010435402E-05
(PID.TID 0000.0001) %MON vort_p_mean                  =   9.7478626213492E-05
(PID.TID 0000.0001) %MON vort_p_sd                    =   3.9497954345840E-05
(PID.TID 0000.0001) %MON surfExpan_theta_mean         =   2.2022030900689E-09
(PID.TID 0000.0001) %MON surfExpan_salt_mean          =  -1.6549506107477E-22
(PID.TID 0000.0001) // =======================================================
(PID.TID 0000.0001) // End MONITOR dynamic field statistics
(PID.TID 0000.0001) // =======================================================
 cg2d: Sum(rhs),rhsMax =  -4.36499794642664E-14  1.46317773061484E-02
(PID.TID 0000.0001) // =======================================================
(PID.TID 0000.0001) // Begin MONITOR dynamic field statistics
(PID.TID 0000.0001) // =======================================================
(PID.TID 0000.0001) %MON time_tsnumber                =                    10
(PID.TID 0000.0001) %MON time_secondsf                =   1.2000000000000E+04
(PID.TID 0000.0001) %MON dynstat_eta_max              =   2.3147633631514E-02
(PID.TID 0000.0001) %MON dynstat_eta_min              =  -1.9077662979637E-02
(PID.TID 0000.0001) %MON dynstat_eta_mean             =  -3.7133107896141E-19
(PID.TID 0000.0001) %MON dynstat_eta_sd               =   2.7016493932777E-03
(PID.TID 0000.0001) %MON dynstat_eta_del2             =   1.6332678350341E-05
(PID.TID 0000.0001) %MON dynstat_uvel_max             =   9.2326516474147E-02
(PID.TID 0000.0001) %MON dynstat_uvel_min             =  -6.9150040580396E-02
(PID.TID 0000.0001) %MON dynstat_uvel_mean            =   3.4304825356457E-05
(PID.TID 0000.0001) %MON dynstat_uvel_sd              =   3.2452662222605E-03
(PID.TID 0000.0001) %MON dynstat_uvel_del2            =   1.6854739215355E-06
(PID.TID 0000.0001) %MON dynstat_vvel_max             =   2.2786232655501E-02
(PID.TID 0000.0001) %MON dynstat_vvel_min             =  -6.3780632377541E-02
(PID.TID 0000.0001) %MON dynstat_vvel_mean            =  -4.3419427080109E-05
(PID.TID 0000.0001) %MON dynstat_vvel_sd              =   2.0313362769783E-03
(PID.TID 0000.0001) %MON dynstat_vvel_del2            =   2.2270125661157E-06
(PID.TID 0000.0001) %MON dynstat_wvel_max             =   1.1716961775534E-05
(PID.TID 0000.0001) %MON dynstat_wvel_min             =  -1.1707233483125E-05
(PID.TID 0000.0001) %MON dynstat_wvel_mean            =   1.9767115544688E-23
(PID.TID 0000.0001) %MON dynstat_wvel_sd              =   7.5795383370992E-07
(PID.TID 0000.0001) %MON dynstat_wvel_del2            =   4.0764448241955E-09
(PID.TID 0000.0001) %MON dynstat_theta_max            =   2.3031183961091E+01
(PID.TID 0000.0001) %MON dynstat_theta_min            =   9.9999999764167E-01
(PID.TID 0000.0001) %MON dynstat_theta_mean           =   4.0798670347128E+00
(PID.TID 0000.0001) %MON dynstat_theta_sd             =   4.6719154352069E+00
(PID.TID 0000.0001) %MON dynstat_theta_del2           =   1.0222977309167E-06
(PID.TID 0000.0001) %MON dynstat_salt_max             =   3.4500000000000E+01
(PID.TID 0000.0001) %MON dynstat_salt_min             =   3.4500000000000E+01
(PID.TID 0000.0001) %MON dynstat_salt_mean            =   3.4500000000000E+01
(PID.TID 0000.0001) %MON dynstat_salt_sd              =   1.2070031636115E-13
(PID.TID 0000.0001) %MON dynstat_salt_del2            =   1.1742794797288E-16
(PID.TID 0000.0001) %MON trAdv_CFL_u_max              =   1.3793079068905E-03
(PID.TID 0000.0001) %MON trAdv_CFL_v_max              =   6.9451556152954E-04
(PID.TID 0000.0001) %MON trAdv_CFL_w_max              =   1.4048680179751E-03
(PID.TID 0000.0001) %MON advcfl_uvel_max              =   1.3792904002399E-03
(PID.TID 0000.0001) %MON advcfl_vvel_max              =   6.8841966403301E-04
(PID.TID 0000.0001) %MON advcfl_wvel_max              =   1.3183641941529E-03
(PID.TID 0000.0001) %MON advcfl_W_hf_max              =   1.4060354130641E-03
(PID.TID 0000.0001) %MON pe_b_mean                    =   1.1533036410788E-08
(PID.TID 0000.0001) %MON ke_max                       =   6.2446315330906E-03
(PID.TID 0000.0001) %MON ke_mean                      =   7.1707531076093E-06
(PID.TID 0000.0001) %MON ke_vol                       =   7.5744557036543E+16
(PID.TID 0000.0001) %MON vort_r_min                   =  -1.0861151095227E-06
(PID.TID 0000.0001) %MON vort_r_max                   =   9.9497817555107E-07
(PID.TID 0000.0001) %MON vort_a_mean                  =   9.3555569952476E-05
(PID.TID 0000.0001) %MON vort_a_sd                    =   2.5194007786352E-05
(PID.TID 0000.0001) %MON vort_p_mean                  =   9.7478626213492E-05
(PID.TID 0000.0001) %MON vort_p_sd                    =   3.9497938818390E-05
(PID.TID 0000.0001) %MON surfExpan_theta_mean         =   2.7418075528394E-09
(PID.TID 0000.0001) %MON surfExpan_salt_mean          =  -2.1138639422686E-21
(PID.TID 0000.0001) // =======================================================
(PID.TID 0000.0001) // End MONITOR dynamic field statistics
(PID.TID 0000.0001) // =======================================================
 cg2d: Sum(rhs),rhsMax =   7.16371406639382E-14  1.45336819660483E-02
(PID.TID 0000.0001) // =======================================================
(PID.TID 0000.0001) // Begin MONITOR dynamic field statistics
(PID.TID 0000.0001) // =======================================================
(PID.TID 0000.0001) %MON time_tsnumber                =                    11
(PID.TID 0000.0001) %MON time_secondsf                =   1.3200000000000E+04
(PID.TID 0000.0001) %MON dynstat_eta_max              =   2.2991445879619E-02
(PID.TID 0000.0001) %MON dynstat_eta_min              =  -1.8820485314086E-02
(PID.TID 0000.0001) %MON dynstat_eta_mean             =   3.7679676954065E-19
(PID.TID 0000.0001) %MON dynstat_eta_sd               =   2.8241614734547E-03
(PID.TID 0000.0001) %MON dynstat_eta_del2             =   1.5725922606342E-05
(PID.TID 0000.0001) %MON dynstat_uvel_max             =   9.5997514290832E-02
(PID.TID 0000.0001) %MON dynstat_uvel_min             =  -7.5451845156376E-02
(PID.TID 0000.0001) %MON dynstat_uvel_mean            =   2.8526771083479E-05
(PID.TID 0000.0001) %MON dynstat_uvel_sd              =   3.4026776042540E-03
(PID.TID 0000.0001) %MON dynstat_uvel_del2            =   1.8777797712068E-06
(PID.TID 0000.0001) %MON dynstat_vvel_max             =   2.7262726340606E-02
(PID.TID 0000.0001) %MON dynstat_vvel_min             =  -7.5171554450325E-02
(PID.TID 0000.0001) %MON dynstat_vvel_mean            =  -4.7052376081108E-05
(PID.TID 0000.0001) %MON dynstat_vvel_sd              =   2.3976704901188E-03
(PID.TID 0000.0001) %MON dynstat_vvel_del2            =   2.6405268162975E-06
(PID.TID 0000.0001) %MON dynstat_wvel_max             =   1.2370692035463E-05
(PID.TID 0000.0001) %MON dynstat_wvel_min             =  -1.2336136787122E-05
(PID.TID 0000.0001) %MON dynstat_wvel_mean            =   8.0401828542690E-24
(PID.TID 0000.0001) %MON dynstat_wvel_sd              =   8.4083816028093E-07
(PID.TID 0000.0001) %MON dynstat_wvel_del2            =   4.4788216438192E-09
(PID.TID 0000.0001) %MON dynstat_theta_max            =   2.3034294293725E+01
(PID.TID 0000.0001) %MON dynstat_theta_min            =   9.9999999650023E-01
(PID.TID 0000.0001) %MON dynstat_theta_mean           =   4.0798581744905E+00
(PID.TID 0000.0001) %MON dynstat_theta_sd             =   4.6718796334663E+00
(PID.TID 0000.0001) %MON dynstat_theta_del2           =   1.2595071436851E-06
(PID.TID 0000.0001) %MON dynstat_salt_max             =   3.4500000000000E+01
(PID.TID 0000.0001) %MON dynstat_salt_min             =   3.4500000000000E+01
(PID.TID 0000.0001) %MON dynstat_salt_mean            =   3.4500000000000E+01
(PID.TID 0000.0001) %MON dynstat_salt_sd              =   1.2059926239347E-13
(PID.TID 0000.0001) %MON dynstat_salt_del2            =   1.2574975215887E-16
(PID.TID 0000.0001) %MON trAdv_CFL_u_max              =   1.4284869181704E-03
(PID.TID 0000.0001) %MON trAdv_CFL_v_max              =   8.1855278638630E-04
(PID.TID 0000.0001) %MON trAdv_CFL_w_max              =   1.4803364144547E-03
(PID.TID 0000.0001) %MON advcfl_uvel_max              =   1.4284687873228E-03
(PID.TID 0000.0001) %MON advcfl_vvel_max              =   8.1136819016166E-04
(PID.TID 0000.0001) %MON advcfl_wvel_max              =   1.3919203415429E-03
(PID.TID 0000.0001) %MON advcfl_W_hf_max              =   1.4844830442555E-03
(PID.TID 0000.0001) %MON pe_b_mean                    =   1.2602733016519E-08
(PID.TID 0000.0001) %MON ke_max                       =   7.3564243308436E-03
(PID.TID 0000.0001) %MON ke_mean                      =   8.4765128651833E-06
(PID.TID 0000.0001) %MON ke_vol                       =   7.5744557036543E+16
(PID.TID 0000.0001) %MON vort_r_min                   =  -1.2031875341829E-06
(PID.TID 0000.0001) %MON vort_r_max                   =   1.1043474360777E-06
(PID.TID 0000.0001) %MON vort_a_mean                  =   9.3555569952477E-05
(PID.TID 0000.0001) %MON vort_a_sd                    =   2.5194004460328E-05
(PID.TID 0000.0001) %MON vort_p_mean                  =   9.7478626213492E-05
(PID.TID 0000.0001) %MON vort_p_sd                    =   3.9497919624585E-05
(PID.TID 0000.0001) %MON surfExpan_theta_mean         =   3.2677429629188E-09
(PID.TID 0000.0001) %MON surfExpan_salt_mean          =  -2.4797422124284E-21
(PID.TID 0000.0001) // =======================================================
(PID.TID 0000.0001) // End MONITOR dynamic field statistics
(PID.TID 0000.0001) // =======================================================
 cg2d: Sum(rhs),rhsMax =  -4.19525525430231E-14  1.39606836162018E-02
(PID.TID 0000.0001) // =======================================================
(PID.TID 0000.0001) // Begin MONITOR dynamic field statistics
(PID.TID 0000.0001) // =======================================================
(PID.TID 0000.0001) %MON time_tsnumber                =                    12
(PID.TID 0000.0001) %MON time_secondsf                =   1.4400000000000E+04
(PID.TID 0000.0001) %MON dynstat_eta_max              =   2.2092304781007E-02
(PID.TID 0000.0001) %MON dynstat_eta_min              =  -1.7970285268384E-02
(PID.TID 0000.0001) %MON dynstat_eta_mean             =  -1.2339025492008E-19
(PID.TID 0000.0001) %MON dynstat_eta_sd               =   2.9122163428733E-03
(PID.TID 0000.0001) %MON dynstat_eta_del2             =   1.5182812560533E-05
(PID.TID 0000.0001) %MON dynstat_uvel_max             =   9.8403795600366E-02
(PID.TID 0000.0001) %MON dynstat_uvel_min             =  -8.1607737064527E-02
(PID.TID 0000.0001) %MON dynstat_uvel_mean            =   2.1818253807043E-05
(PID.TID 0000.0001) %MON dynstat_uvel_sd              =   3.5210573756893E-03
(PID.TID 0000.0001) %MON dynstat_uvel_del2            =   2.0660967886007E-06
(PID.TID 0000.0001) %MON dynstat_vvel_max             =   3.2030273834307E-02
(PID.TID 0000.0001) %MON dynstat_vvel_min             =  -8.6853254091469E-02
(PID.TID 0000.0001) %MON dynstat_vvel_mean            =  -4.9443121791417E-05
(PID.TID 0000.0001) %MON dynstat_vvel_sd              =   2.7751811641254E-03
(PID.TID 0000.0001) %MON dynstat_vvel_del2            =   3.0714058111665E-06
(PID.TID 0000.0001) %MON dynstat_wvel_max             =   1.3022435621580E-05
(PID.TID 0000.0001) %MON dynstat_wvel_min             =  -1.3768572181876E-05
(PID.TID 0000.0001) %MON dynstat_wvel_mean            =  -7.9667416224732E-24
(PID.TID 0000.0001) %MON dynstat_wvel_sd              =   9.1308769378933E-07
(PID.TID 0000.0001) %MON dynstat_wvel_del2            =   4.8352479540722E-09
(PID.TID 0000.0001) %MON dynstat_theta_max            =   2.3037403160889E+01
(PID.TID 0000.0001) %MON dynstat_theta_min            =   9.9999999507902E-01
(PID.TID 0000.0001) %MON dynstat_theta_mean           =   4.0798493181900E+00
(PID.TID 0000.0001) %MON dynstat_theta_sd             =   4.6718438522291E+00
(PID.TID 0000.0001) %MON dynstat_theta_del2           =   1.5147833683135E-06
(PID.TID 0000.0001) %MON dynstat_salt_max             =   3.4500000000000E+01
(PID.TID 0000.0001) %MON dynstat_salt_min             =   3.4500000000000E+01
(PID.TID 0000.0001) %MON dynstat_salt_mean            =   3.4500000000000E+01
(PID.TID 0000.0001) %MON dynstat_salt_sd              =   1.2049360563414E-13
(PID.TID 0000.0001) %MON dynstat_salt_del2            =   1.3406587736716E-16
(PID.TID 0000.0001) %MON trAdv_CFL_u_max              =   1.4584351467045E-03
(PID.TID 0000.0001) %MON trAdv_CFL_v_max              =   9.4575632582228E-04
(PID.TID 0000.0001) %MON trAdv_CFL_w_max              =   1.6522286618251E-03
(PID.TID 0000.0001) %MON advcfl_uvel_max              =   1.4584166357437E-03
(PID.TID 0000.0001) %MON advcfl_vvel_max              =   9.3745523951370E-04
(PID.TID 0000.0001) %MON advcfl_wvel_max              =   1.5492064339663E-03
(PID.TID 0000.0001) %MON advcfl_W_hf_max              =   1.6522286618251E-03
(PID.TID 0000.0001) %MON pe_b_mean                    =   1.3400868855722E-08
(PID.TID 0000.0001) %MON ke_max                       =   8.5001762648805E-03
(PID.TID 0000.0001) %MON ke_mean                      =   9.8329832459774E-06
(PID.TID 0000.0001) %MON ke_vol                       =   7.5744557036543E+16
(PID.TID 0000.0001) %MON vort_r_min                   =  -1.3199143958790E-06
(PID.TID 0000.0001) %MON vort_r_max                   =   1.2118750611869E-06
(PID.TID 0000.0001) %MON vort_a_mean                  =   9.3555569952477E-05
(PID.TID 0000.0001) %MON vort_a_sd                    =   2.5194000651481E-05
(PID.TID 0000.0001) %MON vort_p_mean                  =   9.7478626213492E-05
(PID.TID 0000.0001) %MON vort_p_sd                    =   3.9497897771811E-05
(PID.TID 0000.0001) %MON surfExpan_theta_mean         =   3.7451340894919E-09
(PID.TID 0000.0001) %MON surfExpan_salt_mean          =   3.8078773512159E-22
(PID.TID 0000.0001) // =======================================================
(PID.TID 0000.0001) // End MONITOR dynamic field statistics
(PID.TID 0000.0001) // =======================================================
 cg2d: Sum(rhs),rhsMax =   9.25509668903146E-14  1.32273077077143E-02
(PID.TID 0000.0001) // =======================================================
(PID.TID 0000.0001) // Begin MONITOR dynamic field statistics
(PID.TID 0000.0001) // =======================================================
(PID.TID 0000.0001) %MON time_tsnumber                =                    13
(PID.TID 0000.0001) %MON time_secondsf                =   1.5600000000000E+04
(PID.TID 0000.0001) %MON dynstat_eta_max              =   2.0609827876644E-02
(PID.TID 0000.0001) %MON dynstat_eta_min              =  -1.7562865284097E-02
(PID.TID 0000.0001) %MON dynstat_eta_mean             =   2.8152886670703E-19
(PID.TID 0000.0001) %MON dynstat_eta_sd               =   2.9674091238546E-03
(PID.TID 0000.0001) %MON dynstat_eta_del2             =   1.4770219432768E-05
(PID.TID 0000.0001) %MON dynstat_uvel_max             =   1.0064702000251E-01
(PID.TID 0000.0001) %MON dynstat_uvel_min             =  -8.7608915971313E-02
(PID.TID 0000.0001) %MON dynstat_uvel_mean            =   1.4548791495072E-05
(PID.TID 0000.0001) %MON dynstat_uvel_sd              =   3.6005895038285E-03
(PID.TID 0000.0001) %MON dynstat_uvel_del2            =   2.2561509050787E-06
(PID.TID 0000.0001) %MON dynstat_vvel_max             =   3.7068208456568E-02
(PID.TID 0000.0001) %MON dynstat_vvel_min             =  -9.8644923565082E-02
(PID.TID 0000.0001) %MON dynstat_vvel_mean            =  -5.0461603575489E-05
(PID.TID 0000.0001) %MON dynstat_vvel_sd              =   3.1585622908790E-03
(PID.TID 0000.0001) %MON dynstat_vvel_del2            =   3.5147168531660E-06
(PID.TID 0000.0001) %MON dynstat_wvel_max             =   1.3767372977607E-05
(PID.TID 0000.0001) %MON dynstat_wvel_min             =  -1.5186737748950E-05
(PID.TID 0000.0001) %MON dynstat_wvel_mean            =  -3.3293358414105E-24
(PID.TID 0000.0001) %MON dynstat_wvel_sd              =   9.7560719881629E-07
(PID.TID 0000.0001) %MON dynstat_wvel_del2            =   5.1493709025189E-09
(PID.TID 0000.0001) %MON dynstat_theta_max            =   2.3040510562039E+01
(PID.TID 0000.0001) %MON dynstat_theta_min            =   9.9999999336469E-01
(PID.TID 0000.0001) %MON dynstat_theta_mean           =   4.0798404658379E+00
(PID.TID 0000.0001) %MON dynstat_theta_sd             =   4.6718080912959E+00
(PID.TID 0000.0001) %MON dynstat_theta_del2           =   1.7855231279275E-06
(PID.TID 0000.0001) %MON dynstat_salt_max             =   3.4500000000000E+01
(PID.TID 0000.0001) %MON dynstat_salt_min             =   3.4500000000000E+01
(PID.TID 0000.0001) %MON dynstat_salt_mean            =   3.4500000000000E+01
(PID.TID 0000.0001) %MON dynstat_salt_sd              =   1.2033433698452E-13
(PID.TID 0000.0001) %MON dynstat_salt_del2            =   1.4158898675221E-16
(PID.TID 0000.0001) %MON trAdv_CFL_u_max              =   1.5001548942774E-03
(PID.TID 0000.0001) %MON trAdv_CFL_v_max              =   1.0741573409982E-03
(PID.TID 0000.0001) %MON trAdv_CFL_w_max              =   1.8224085298740E-03
(PID.TID 0000.0001) %MON advcfl_uvel_max              =   1.5001358537952E-03
(PID.TID 0000.0001) %MON advcfl_vvel_max              =   1.0647292541293E-03
(PID.TID 0000.0001) %MON advcfl_wvel_max              =   1.7087749928495E-03
(PID.TID 0000.0001) %MON advcfl_W_hf_max              =   1.8224085298740E-03
(PID.TID 0000.0001) %MON pe_b_mean                    =   1.3913632974358E-08
(PID.TID 0000.0001) %MON ke_max                       =   9.6590207965255E-03
(PID.TID 0000.0001) %MON ke_mean                      =   1.1223235756679E-05
(PID.TID 0000.0001) %MON ke_vol                       =   7.5744557036543E+16
(PID.TID 0000.0001) %MON vort_r_min                   =  -1.4358686834733E-06
(PID.TID 0000.0001) %MON vort_r_max                   =   1.3162860292383E-06
(PID.TID 0000.0001) %MON vort_a_mean                  =   9.3555569952477E-05
(PID.TID 0000.0001) %MON vort_a_sd                    =   2.5193996554055E-05
(PID.TID 0000.0001) %MON vort_p_mean                  =   9.7478626213493E-05
(PID.TID 0000.0001) %MON vort_p_sd                    =   3.9497874394074E-05
(PID.TID 0000.0001) %MON surfExpan_theta_mean         =   4.1397792254996E-09
(PID.TID 0000.0001) %MON surfExpan_salt_mean          =   2.6184002365722E-21
(PID.TID 0000.0001) // =======================================================
(PID.TID 0000.0001) // End MONITOR dynamic field statistics
(PID.TID 0000.0001) // =======================================================
 cg2d: Sum(rhs),rhsMax =  -6.22869811284232E-14  1.34310334042690E-02
(PID.TID 0000.0001) // =======================================================
(PID.TID 0000.0001) // Begin MONITOR dynamic field statistics
(PID.TID 0000.0001) // =======================================================
(PID.TID 0000.0001) %MON time_tsnumber                =                    14
(PID.TID 0000.0001) %MON time_secondsf                =   1.6800000000000E+04
(PID.TID 0000.0001) %MON dynstat_eta_max              =   1.8751211162433E-02
(PID.TID 0000.0001) %MON dynstat_eta_min              =  -1.7807166458318E-02
(PID.TID 0000.0001) %MON dynstat_eta_mean             =   5.8595867159522E-19
(PID.TID 0000.0001) %MON dynstat_eta_sd               =   2.9921971459285E-03
(PID.TID 0000.0001) %MON dynstat_eta_del2             =   1.4501456571260E-05
(PID.TID 0000.0001) %MON dynstat_uvel_max             =   1.0278863158037E-01
(PID.TID 0000.0001) %MON dynstat_uvel_min             =  -9.3445168976755E-02
(PID.TID 0000.0001) %MON dynstat_uvel_mean            =   7.0851856787050E-06
(PID.TID 0000.0001) %MON dynstat_uvel_sd              =   3.6423131368263E-03
(PID.TID 0000.0001) %MON dynstat_uvel_del2            =   2.4543199145569E-06
(PID.TID 0000.0001) %MON dynstat_vvel_max             =   4.2357696098466E-02
(PID.TID 0000.0001) %MON dynstat_vvel_min             =  -1.1047578666764E-01
(PID.TID 0000.0001) %MON dynstat_vvel_mean            =  -5.0051687826508E-05
(PID.TID 0000.0001) %MON dynstat_vvel_sd              =   3.5425027254434E-03
(PID.TID 0000.0001) %MON dynstat_vvel_del2            =   3.9657730965488E-06
(PID.TID 0000.0001) %MON dynstat_wvel_max             =   1.4283997848222E-05
(PID.TID 0000.0001) %MON dynstat_wvel_min             =  -1.6398816995196E-05
(PID.TID 0000.0001) %MON dynstat_wvel_mean            =   1.6935956058959E-23
(PID.TID 0000.0001) %MON dynstat_wvel_sd              =   1.0296997645916E-06
(PID.TID 0000.0001) %MON dynstat_wvel_del2            =   5.4266231553866E-09
(PID.TID 0000.0001) %MON dynstat_theta_max            =   2.3043616502743E+01
(PID.TID 0000.0001) %MON dynstat_theta_min            =   9.9999999134850E-01
(PID.TID 0000.0001) %MON dynstat_theta_mean           =   4.0798316174724E+00
(PID.TID 0000.0001) %MON dynstat_theta_sd             =   4.6717723506711E+00
(PID.TID 0000.0001) %MON dynstat_theta_del2           =   2.0694951220968E-06
(PID.TID 0000.0001) %MON dynstat_salt_max             =   3.4500000000000E+01
(PID.TID 0000.0001) %MON dynstat_salt_min             =   3.4500000000000E+01
(PID.TID 0000.0001) %MON dynstat_salt_mean            =   3.4500000000000E+01
(PID.TID 0000.0001) %MON dynstat_salt_sd              =   1.2015735286434E-13
(PID.TID 0000.0001) %MON dynstat_salt_del2            =   1.4906274535123E-16
(PID.TID 0000.0001) %MON trAdv_CFL_u_max              =   1.5259550984097E-03
(PID.TID 0000.0001) %MON trAdv_CFL_v_max              =   1.2026218699608E-03
(PID.TID 0000.0001) %MON trAdv_CFL_w_max              =   1.9678580394235E-03
(PID.TID 0000.0001) %MON advcfl_uvel_max              =   1.5259357304624E-03
(PID.TID 0000.0001) %MON advcfl_vvel_max              =   1.1924263072735E-03
(PID.TID 0000.0001) %MON advcfl_wvel_max              =   1.8451552174622E-03
(PID.TID 0000.0001) %MON advcfl_W_hf_max              =   1.9678580394235E-03
(PID.TID 0000.0001) %MON pe_b_mean                    =   1.4147056771886E-08
(PID.TID 0000.0001) %MON ke_max                       =   1.0827150100327E-02
(PID.TID 0000.0001) %MON ke_mean                      =   1.2630092918311E-05
(PID.TID 0000.0001) %MON ke_vol                       =   7.5744557036543E+16
(PID.TID 0000.0001) %MON vort_r_min                   =  -1.5504785502830E-06
(PID.TID 0000.0001) %MON vort_r_max                   =   1.4161422872472E-06
(PID.TID 0000.0001) %MON vort_a_mean                  =   9.3555569952477E-05
(PID.TID 0000.0001) %MON vort_a_sd                    =   2.5193992354965E-05
(PID.TID 0000.0001) %MON vort_p_mean                  =   9.7478626213492E-05
(PID.TID 0000.0001) %MON vort_p_sd                    =   3.9497850633641E-05
(PID.TID 0000.0001) %MON surfExpan_theta_mean         =   4.4207913729063E-09
(PID.TID 0000.0001) %MON surfExpan_salt_mean          =   1.7762950187047E-21
(PID.TID 0000.0001) // =======================================================
(PID.TID 0000.0001) // End MONITOR dynamic field statistics
(PID.TID 0000.0001) // =======================================================
 cg2d: Sum(rhs),rhsMax =  -1.58706381370166E-13  1.33832759503059E-02
(PID.TID 0000.0001) // =======================================================
(PID.TID 0000.0001) // Begin MONITOR dynamic field statistics
(PID.TID 0000.0001) // =======================================================
(PID.TID 0000.0001) %MON time_tsnumber                =                    15
(PID.TID 0000.0001) %MON time_secondsf                =   1.8000000000000E+04
(PID.TID 0000.0001) %MON dynstat_eta_max              =   1.6741397810138E-02
(PID.TID 0000.0001) %MON dynstat_eta_min              =  -1.7714267735479E-02
(PID.TID 0000.0001) %MON dynstat_eta_mean             =  -3.3939190384476E-19
(PID.TID 0000.0001) %MON dynstat_eta_sd               =   2.9905597761535E-03
(PID.TID 0000.0001) %MON dynstat_eta_del2             =   1.4353980620041E-05
(PID.TID 0000.0001) %MON dynstat_uvel_max             =   1.0387472793717E-01
(PID.TID 0000.0001) %MON dynstat_uvel_min             =  -9.9105563490800E-02
(PID.TID 0000.0001) %MON dynstat_uvel_mean            =  -2.2299572758589E-07
(PID.TID 0000.0001) %MON dynstat_uvel_sd              =   3.6481565155468E-03
(PID.TID 0000.0001) %MON dynstat_uvel_del2            =   2.6665562746983E-06
(PID.TID 0000.0001) %MON dynstat_vvel_max             =   4.7880812804853E-02
(PID.TID 0000.0001) %MON dynstat_vvel_min             =  -1.2213640760189E-01
(PID.TID 0000.0001) %MON dynstat_vvel_mean            =  -4.8232325213349E-05
(PID.TID 0000.0001) %MON dynstat_vvel_sd              =   3.9217769156567E-03
(PID.TID 0000.0001) %MON dynstat_vvel_del2            =   4.4201332162367E-06
(PID.TID 0000.0001) %MON dynstat_wvel_max             =   1.4605829233860E-05
(PID.TID 0000.0001) %MON dynstat_wvel_min             =  -1.7385719951820E-05
(PID.TID 0000.0001) %MON dynstat_wvel_mean            =   3.1252304180446E-24
(PID.TID 0000.0001) %MON dynstat_wvel_sd              =   1.0766270355187E-06
(PID.TID 0000.0001) %MON dynstat_wvel_del2            =   5.6729317681093E-09
(PID.TID 0000.0001) %MON dynstat_theta_max            =   2.3046720977470E+01
(PID.TID 0000.0001) %MON dynstat_theta_min            =   9.9999998902631E-01
(PID.TID 0000.0001) %MON dynstat_theta_mean           =   4.0798227731417E+00
(PID.TID 0000.0001) %MON dynstat_theta_sd             =   4.6717366306206E+00
(PID.TID 0000.0001) %MON dynstat_theta_del2           =   2.3647203202952E-06
(PID.TID 0000.0001) %MON dynstat_salt_max             =   3.4500000000000E+01
(PID.TID 0000.0001) %MON dynstat_salt_min             =   3.4500000000000E+01
(PID.TID 0000.0001) %MON dynstat_salt_mean            =   3.4500000000000E+01
(PID.TID 0000.0001) %MON dynstat_salt_sd              =   1.1998779447738E-13
(PID.TID 0000.0001) %MON dynstat_salt_del2            =   1.5601280215087E-16
(PID.TID 0000.0001) %MON trAdv_CFL_u_max              =   1.5382921641474E-03
(PID.TID 0000.0001) %MON trAdv_CFL_v_max              =   1.3295575377288E-03
(PID.TID 0000.0001) %MON trAdv_CFL_w_max              =   2.0862863942184E-03
(PID.TID 0000.0001) %MON advcfl_uvel_max              =   1.5382726396138E-03
(PID.TID 0000.0001) %MON advcfl_vvel_max              =   1.3182858424762E-03
(PID.TID 0000.0001) %MON advcfl_wvel_max              =   1.9561991506971E-03
(PID.TID 0000.0001) %MON advcfl_W_hf_max              =   2.0862863942184E-03
(PID.TID 0000.0001) %MON pe_b_mean                    =   1.4131578095703E-08
(PID.TID 0000.0001) %MON ke_max                       =   1.2137978260859E-02
(PID.TID 0000.0001) %MON ke_mean                      =   1.4036368230755E-05
(PID.TID 0000.0001) %MON ke_vol                       =   7.5744557036543E+16
(PID.TID 0000.0001) %MON vort_r_min                   =  -1.6630203558437E-06
(PID.TID 0000.0001) %MON vort_r_max                   =   1.5099289720333E-06
(PID.TID 0000.0001) %MON vort_a_mean                  =   9.3555569952476E-05
(PID.TID 0000.0001) %MON vort_a_sd                    =   2.5193988229149E-05
(PID.TID 0000.0001) %MON vort_p_mean                  =   9.7478626213492E-05
(PID.TID 0000.0001) %MON vort_p_sd                    =   3.9497827541107E-05
(PID.TID 0000.0001) %MON surfExpan_theta_mean         =   4.5630414565923E-09
(PID.TID 0000.0001) %MON surfExpan_salt_mean          =  -4.0106460746949E-22
(PID.TID 0000.0001) // =======================================================
(PID.TID 0000.0001) // End MONITOR dynamic field statistics
(PID.TID 0000.0001) // =======================================================
(PID.TID 0000.0001) DIAGSTATS_CLOSE_IO: close file: dynStDiag.0000000000.txt , unit=     9
(PID.TID 0000.0001) %CHECKPOINT        15 ckptA
(PID.TID 0000.0001)   early fc =  0.000000000000000D+00
 --> objf_atl(bi,bj)       = -0.108329126799332D-03
(PID.TID 0000.0001)   local fc =  0.000000000000000D+00
(PID.TID 0000.0001)  global fc =  0.000000000000000D+00
 cg2d: Sum(rhs),rhsMax =  -1.58706381370166E-13  1.33832759503059E-02
(PID.TID 0000.0001) Did not write pickup because writePickupAtEnd = FALSE
 cg2d: Sum(rhs),rhsMax =  -1.58706381370166E-13  1.33832759503059E-02
 cg2d: Sum(rhs),rhsMax =  -1.58706381370166E-13  1.33832759503059E-02
 cg2d: Sum(rhs),rhsMax =   0.00000000000000E+00  0.00000000000000E+00
 cg2d: Sum(rhs),rhsMax =  -6.22869811284232E-14  1.34310334042690E-02
 cg2d: Sum(rhs),rhsMax =  -6.22869811284232E-14  1.34310334042690E-02
 cg2d: Sum(rhs),rhsMax =  -6.22869811284232E-14  1.34310334042690E-02
 cg2d: Sum(rhs),rhsMax =   0.00000000000000E+00  0.00000000000000E+00
 cg2d: Sum(rhs),rhsMax =   9.25509668903146E-14  1.32273077077143E-02
 cg2d: Sum(rhs),rhsMax =   9.25509668903146E-14  1.32273077077143E-02
 cg2d: Sum(rhs),rhsMax =   9.25509668903146E-14  1.32273077077143E-02
 cg2d: Sum(rhs),rhsMax =   0.00000000000000E+00  0.00000000000000E+00
 cg2d: Sum(rhs),rhsMax =  -4.19525525430231E-14  1.39606836162018E-02
 cg2d: Sum(rhs),rhsMax =  -4.19525525430231E-14  1.39606836162018E-02
 cg2d: Sum(rhs),rhsMax =  -4.19525525430231E-14  1.39606836162018E-02
 cg2d: Sum(rhs),rhsMax =   0.00000000000000E+00  0.00000000000000E+00
 cg2d: Sum(rhs),rhsMax =   7.16371406639382E-14  1.45336819660483E-02
 cg2d: Sum(rhs),rhsMax =   7.16371406639382E-14  1.45336819660483E-02
 cg2d: Sum(rhs),rhsMax =   7.16371406639382E-14  1.45336819660483E-02
 cg2d: Sum(rhs),rhsMax =   0.00000000000000E+00  0.00000000000000E+00
 cg2d: Sum(rhs),rhsMax =  -4.36499794642664E-14  1.46317773061484E-02
 cg2d: Sum(rhs),rhsMax =  -4.36499794642664E-14  1.46317773061484E-02
 cg2d: Sum(rhs),rhsMax =  -4.36499794642664E-14  1.46317773061484E-02
 cg2d: Sum(rhs),rhsMax =   0.00000000000000E+00  0.00000000000000E+00
 cg2d: Sum(rhs),rhsMax =  -1.81018394718180E-15  1.42030339277927E-02
 cg2d: Sum(rhs),rhsMax =  -1.81018394718180E-15  1.42030339277927E-02
 cg2d: Sum(rhs),rhsMax =  -1.81018394718180E-15  1.42030339277927E-02
 cg2d: Sum(rhs),rhsMax =   0.00000000000000E+00  0.00000000000000E+00
 cg2d: Sum(rhs),rhsMax =   2.32990710058445E-14  1.32520276170039E-02
 cg2d: Sum(rhs),rhsMax =   2.32990710058445E-14  1.32520276170039E-02
 cg2d: Sum(rhs),rhsMax =   2.32990710058445E-14  1.32520276170039E-02
 cg2d: Sum(rhs),rhsMax =   0.00000000000000E+00  0.00000000000000E+00
 cg2d: Sum(rhs),rhsMax =  -7.50441375707567E-15  1.18376455794608E-02
 cg2d: Sum(rhs),rhsMax =  -7.50441375707567E-15  1.18376455794608E-02
 cg2d: Sum(rhs),rhsMax =  -7.50441375707567E-15  1.18376455794608E-02
 cg2d: Sum(rhs),rhsMax =   0.00000000000000E+00  0.00000000000000E+00
 cg2d: Sum(rhs),rhsMax =  -4.03149735817010E-15  1.00620519432849E-02
 cg2d: Sum(rhs),rhsMax =  -4.03149735817010E-15  1.00620519432849E-02
 cg2d: Sum(rhs),rhsMax =  -4.03149735817010E-15  1.00620519432849E-02
 cg2d: Sum(rhs),rhsMax =   0.00000000000000E+00  0.00000000000000E+00
 cg2d: Sum(rhs),rhsMax =   1.48631107421693E-14  8.05529736580132E-03
 cg2d: Sum(rhs),rhsMax =   1.48631107421693E-14  8.05529736580132E-03
 cg2d: Sum(rhs),rhsMax =   1.48631107421693E-14  8.05529736580132E-03
 cg2d: Sum(rhs),rhsMax =   0.00000000000000E+00  0.00000000000000E+00
 cg2d: Sum(rhs),rhsMax =  -5.41233724504764E-16  6.02406791961946E-03
 cg2d: Sum(rhs),rhsMax =  -5.41233724504764E-16  6.02406791961946E-03
 cg2d: Sum(rhs),rhsMax =  -5.41233724504764E-16  6.02406791961946E-03
 cg2d: Sum(rhs),rhsMax =   0.00000000000000E+00  0.00000000000000E+00
 cg2d: Sum(rhs),rhsMax =  -7.34134975033385E-15  4.28445462902603E-03
 cg2d: Sum(rhs),rhsMax =  -7.34134975033385E-15  4.28445462902603E-03
 cg2d: Sum(rhs),rhsMax =  -7.34134975033385E-15  4.28445462902603E-03
 cg2d: Sum(rhs),rhsMax =   0.00000000000000E+00  0.00000000000000E+00
 cg2d: Sum(rhs),rhsMax =   1.52655665885959E-15  2.49251898139421E-03
 cg2d: Sum(rhs),rhsMax =   1.52655665885959E-15  2.49251898139421E-03
 cg2d: Sum(rhs),rhsMax =   1.52655665885959E-15  2.49251898139421E-03
 cg2d: Sum(rhs),rhsMax =   0.00000000000000E+00  0.00000000000000E+00
 cg2d: Sum(rhs),rhsMax =   0.00000000000000E+00  9.39971892369837E-04
 cg2d: Sum(rhs),rhsMax =   0.00000000000000E+00  9.39971892369837E-04
 cg2d: Sum(rhs),rhsMax =   0.00000000000000E+00  9.39971892369837E-04
 cg2d: Sum(rhs),rhsMax =   0.00000000000000E+00  0.00000000000000E+00
(PID.TID 0000.0001) Start initial hydrostatic pressure computation
(PID.TID 0000.0001) Pressure is predetermined for buoyancyRelation OCEANIC
(PID.TID 0000.0001) 
(PID.TID 0000.0001) // =======================================================
(PID.TID 0000.0001) // Model current state
(PID.TID 0000.0001) // =======================================================
(PID.TID 0000.0001) 
 ph-pack: packing ecco_cost
 ph-pack: packing ecco_ctrl
(PID.TID 0000.0001) // =======================================================
(PID.TID 0000.0001) // Gradient-check starts (grdchk_main)
(PID.TID 0000.0001) // =======================================================
(PID.TID 0000.0001) Start initial hydrostatic pressure computation
(PID.TID 0000.0001) Pressure is predetermined for buoyancyRelation OCEANIC
(PID.TID 0000.0001) 
(PID.TID 0000.0001) // =======================================================
(PID.TID 0000.0001) // Model current state
(PID.TID 0000.0001) // =======================================================
(PID.TID 0000.0001) 
 cg2d: Sum(rhs),rhsMax =   0.00000000000000E+00  9.39971892369837E-04
 cg2d: Sum(rhs),rhsMax =   1.52655665885959E-15  2.49251898139421E-03
 cg2d: Sum(rhs),rhsMax =  -7.34134975033385E-15  4.28445462902603E-03
 cg2d: Sum(rhs),rhsMax =  -5.41233724504764E-16  6.02406791961946E-03
 cg2d: Sum(rhs),rhsMax =   1.48631107421693E-14  8.05529736580132E-03
 cg2d: Sum(rhs),rhsMax =  -4.03149735817010E-15  1.00620519432849E-02
 cg2d: Sum(rhs),rhsMax =  -7.50441375707567E-15  1.18376455794608E-02
 cg2d: Sum(rhs),rhsMax =   2.32990710058445E-14  1.32520276170039E-02
 cg2d: Sum(rhs),rhsMax =  -1.81018394718180E-15  1.42030339277927E-02
 cg2d: Sum(rhs),rhsMax =  -4.36499794642664E-14  1.46317773061484E-02
 cg2d: Sum(rhs),rhsMax =   7.16371406639382E-14  1.45336819660483E-02
 cg2d: Sum(rhs),rhsMax =  -4.19525525430231E-14  1.39606836162018E-02
 cg2d: Sum(rhs),rhsMax =   9.25509668903146E-14  1.32273077077143E-02
 cg2d: Sum(rhs),rhsMax =  -6.22869811284232E-14  1.34310334042690E-02
 cg2d: Sum(rhs),rhsMax =  -1.58706381370166E-13  1.33832759503059E-02
(PID.TID 0000.0001) Did not write pickup because writePickupAtEnd = FALSE
(PID.TID 0000.0001)   early fc =  0.000000000000000D+00
 --> objf_atl(bi,bj)       = -0.108329126799332D-03
(PID.TID 0000.0001)   local fc =  0.000000000000000D+00
(PID.TID 0000.0001)  global fc =  0.000000000000000D+00
(PID.TID 0000.0001) grdchk reference fc: fcref       =  0.00000000000000E+00
grad-res -------------------------------
 grad-res  proc    #    i    j    k   bi   bj iobc       fc ref            fc + eps           fc - eps
 grad-res  proc    #    i    j    k   bi   bj iobc      adj grad            fd grad          1 - fd/adj
 grad-res closest next position: 
 grad-res     0  163    4    8    1    1    1
(PID.TID 0000.0001) ====== Starts gradient-check number   1 (=ichknum) =======
 ph-test icomp, ncvarcomp, ichknum          163       82288           1
 ph-grd _loc: bi, bj, icomptest, ichknum            1           1           0           1
 ph-grd -->hit<--           13           8           1           1
(PID.TID 0000.0001) grdchk pos: i,j,k=   13    8    1 ; bi,bj=   1   1 ; iobc=  1 ; rec=   1
(PID.TID 0000.0001) Start initial hydrostatic pressure computation
(PID.TID 0000.0001) Pressure is predetermined for buoyancyRelation OCEANIC
(PID.TID 0000.0001) 
(PID.TID 0000.0001) // =======================================================
(PID.TID 0000.0001) // Model current state
(PID.TID 0000.0001) // =======================================================
(PID.TID 0000.0001) 
 cg2d: Sum(rhs),rhsMax =   0.00000000000000E+00  9.39971892369837E-04
 cg2d: Sum(rhs),rhsMax =   5.55111512312578E-17  2.49251898139428E-03
 cg2d: Sum(rhs),rhsMax =   1.48492329543615E-14  4.28445462902669E-03
 cg2d: Sum(rhs),rhsMax =  -6.16173778666962E-15  6.02406791961947E-03
 cg2d: Sum(rhs),rhsMax =  -2.72976086179710E-14  8.05529736580132E-03
 cg2d: Sum(rhs),rhsMax =  -2.07472927726826E-15  1.00620519432849E-02
 cg2d: Sum(rhs),rhsMax =   8.06334166103539E-14  1.18376455794608E-02
 cg2d: Sum(rhs),rhsMax =   5.85434478672653E-14  1.32520276170035E-02
 cg2d: Sum(rhs),rhsMax =  -6.47342422721575E-14  1.42030339277912E-02
 cg2d: Sum(rhs),rhsMax =  -2.84650775173034E-14  1.46317773061430E-02
 cg2d: Sum(rhs),rhsMax =  -7.77503061932805E-15  1.45336819660318E-02
 cg2d: Sum(rhs),rhsMax =   8.17054757185076E-14  1.39606836161565E-02
 cg2d: Sum(rhs),rhsMax =   1.78877745948824E-13  1.32273077099874E-02
 cg2d: Sum(rhs),rhsMax =   1.19473875237475E-13  1.34310334087408E-02
 cg2d: Sum(rhs),rhsMax =  -4.54844495401119E-14  1.33832759584724E-02
(PID.TID 0000.0001) Did not write pickup because writePickupAtEnd = FALSE
(PID.TID 0000.0001)   early fc =  0.000000000000000D+00
 --> objf_atl(bi,bj)       = -0.108329126851616D-03
(PID.TID 0000.0001)   local fc =  0.000000000000000D+00
(PID.TID 0000.0001)  global fc =  0.000000000000000D+00
(PID.TID 0000.0001) grdchk perturb(+)fc: fcpertplus  =  0.00000000000000E+00
(PID.TID 0000.0001) Start initial hydrostatic pressure computation
(PID.TID 0000.0001) Pressure is predetermined for buoyancyRelation OCEANIC
(PID.TID 0000.0001) 
(PID.TID 0000.0001) // =======================================================
(PID.TID 0000.0001) // Model current state
(PID.TID 0000.0001) // =======================================================
(PID.TID 0000.0001) 
 cg2d: Sum(rhs),rhsMax =   0.00000000000000E+00  9.39971892369837E-04
 cg2d: Sum(rhs),rhsMax =  -8.60422844084496E-16  2.49251898139415E-03
 cg2d: Sum(rhs),rhsMax =   1.61953783717195E-14  4.28445462902537E-03
 cg2d: Sum(rhs),rhsMax =  -4.03843625207401E-15  6.02406791961945E-03
 cg2d: Sum(rhs),rhsMax =  -4.14945855453652E-15  8.05529736580130E-03
 cg2d: Sum(rhs),rhsMax =   2.24403828852360E-14  1.00620519432849E-02
 cg2d: Sum(rhs),rhsMax =   4.37150315946155E-15  1.18376455794609E-02
 cg2d: Sum(rhs),rhsMax =  -1.64902813626355E-14  1.32520276170042E-02
 cg2d: Sum(rhs),rhsMax =   1.36002320516582E-14  1.42030339277942E-02
 cg2d: Sum(rhs),rhsMax =   3.67622599029005E-14  1.46317773061537E-02
 cg2d: Sum(rhs),rhsMax =  -4.18519385814164E-14  1.45336819660647E-02
 cg2d: Sum(rhs),rhsMax =  -4.37427871702312E-14  1.39606836162473E-02
 cg2d: Sum(rhs),rhsMax =   6.27033147626577E-14  1.32273077054423E-02
 cg2d: Sum(rhs),rhsMax =  -1.08218989325337E-13  1.34310333997993E-02
 cg2d: Sum(rhs),rhsMax =  -4.40064651385796E-14  1.33832759421430E-02
(PID.TID 0000.0001) Did not write pickup because writePickupAtEnd = FALSE
(PID.TID 0000.0001)   early fc =  0.000000000000000D+00
 --> objf_atl(bi,bj)       = -0.108329126747048D-03
(PID.TID 0000.0001)   local fc =  0.000000000000000D+00
(PID.TID 0000.0001)  global fc =  0.000000000000000D+00
(PID.TID 0000.0001) grdchk perturb(-)fc: fcpertminus =  0.00000000000000E+00
grad-res -------------------------------
 grad-res     0    1   13    8    1    1    1    1   0.00000000000E+00  0.00000000000E+00  0.00000000000E+00
 grad-res     0    1    1  163    0    1    1    1   0.00000000000E+00  0.00000000000E+00  0.00000000000E+00
(PID.TID 0000.0001)  ADM  ref_cost_function      =  0.00000000000000E+00
(PID.TID 0000.0001)  ADM  adjoint_gradient       =  0.00000000000000E+00
(PID.TID 0000.0001)  ADM  finite-diff_grad       =  0.00000000000000E+00
(PID.TID 0000.0001) ====== End of gradient-check number   1 (ierr=  0) =======
(PID.TID 0000.0001) ====== Starts gradient-check number   2 (=ichknum) =======
 ph-test icomp, ncvarcomp, ichknum          164       82288           2
 ph-grd _loc: bi, bj, icomptest, ichknum            1           1         163           2
 ph-grd -->hit<--           14           8           1           1
(PID.TID 0000.0001) grdchk pos: i,j,k=   14    8    1 ; bi,bj=   1   1 ; iobc=  1 ; rec=   1
(PID.TID 0000.0001) Start initial hydrostatic pressure computation
(PID.TID 0000.0001) Pressure is predetermined for buoyancyRelation OCEANIC
(PID.TID 0000.0001) 
(PID.TID 0000.0001) // =======================================================
(PID.TID 0000.0001) // Model current state
(PID.TID 0000.0001) // =======================================================
(PID.TID 0000.0001) 
 cg2d: Sum(rhs),rhsMax =   2.22044604925031E-16  9.39971892369837E-04
 cg2d: Sum(rhs),rhsMax =  -6.38378239159465E-16  2.49251898139434E-03
 cg2d: Sum(rhs),rhsMax =  -9.56179579958416E-15  4.28445462902783E-03
 cg2d: Sum(rhs),rhsMax =   9.35362898246694E-15  6.02406791961946E-03
 cg2d: Sum(rhs),rhsMax =   2.07958650300100E-14  8.05529736580129E-03
 cg2d: Sum(rhs),rhsMax =   6.46011022453763E-15  1.00620519432848E-02
 cg2d: Sum(rhs),rhsMax =  -2.84841594755392E-15  1.18376455794606E-02
 cg2d: Sum(rhs),rhsMax =   3.55340756819089E-14  1.32520276170028E-02
 cg2d: Sum(rhs),rhsMax =  -9.09081837585646E-15  1.42030339277885E-02
 cg2d: Sum(rhs),rhsMax =  -5.64071359065998E-14  1.46317773061341E-02
 cg2d: Sum(rhs),rhsMax =   5.19358861472696E-14  1.45336819660071E-02
 cg2d: Sum(rhs),rhsMax =  -1.56992474575901E-14  1.39606836160949E-02
 cg2d: Sum(rhs),rhsMax =  -1.80272463623510E-14  1.32273077123612E-02
 cg2d: Sum(rhs),rhsMax =   6.73280875496118E-14  1.34310334126697E-02
 cg2d: Sum(rhs),rhsMax =  -1.76941794549634E-16  1.33832759644028E-02
(PID.TID 0000.0001) Did not write pickup because writePickupAtEnd = FALSE
(PID.TID 0000.0001)   early fc =  0.000000000000000D+00
 --> objf_atl(bi,bj)       = -0.108329126862068D-03
(PID.TID 0000.0001)   local fc =  0.000000000000000D+00
(PID.TID 0000.0001)  global fc =  0.000000000000000D+00
(PID.TID 0000.0001) grdchk perturb(+)fc: fcpertplus  =  0.00000000000000E+00
(PID.TID 0000.0001) Start initial hydrostatic pressure computation
(PID.TID 0000.0001) Pressure is predetermined for buoyancyRelation OCEANIC
(PID.TID 0000.0001) 
(PID.TID 0000.0001) // =======================================================
(PID.TID 0000.0001) // Model current state
(PID.TID 0000.0001) // =======================================================
(PID.TID 0000.0001) 
 cg2d: Sum(rhs),rhsMax =   0.00000000000000E+00  9.39971892369837E-04
 cg2d: Sum(rhs),rhsMax =  -3.49720252756924E-15  2.49251898139409E-03
 cg2d: Sum(rhs),rhsMax =   6.42541575501809E-15  4.28445462902423E-03
 cg2d: Sum(rhs),rhsMax =  -1.45855549860130E-14  6.02406791961946E-03
 cg2d: Sum(rhs),rhsMax =  -1.08107967022875E-14  8.05529736580134E-03
 cg2d: Sum(rhs),rhsMax =  -2.17256768131335E-14  1.00620519432849E-02
 cg2d: Sum(rhs),rhsMax =   2.64094301982709E-14  1.18376455794611E-02
 cg2d: Sum(rhs),rhsMax =   4.29378754773779E-14  1.32520276170049E-02
 cg2d: Sum(rhs),rhsMax =  -5.44898327847765E-14  1.42030339277970E-02
 cg2d: Sum(rhs),rhsMax =  -3.61377594515488E-14  1.46317773061627E-02
 cg2d: Sum(rhs),rhsMax =   9.67975699595058E-15  1.45336819660896E-02
 cg2d: Sum(rhs),rhsMax =   8.34089741719168E-14  1.39606836163091E-02
 cg2d: Sum(rhs),rhsMax =   4.04017097554998E-14  1.32273077030731E-02
 cg2d: Sum(rhs),rhsMax =  -8.35095881335235E-15  1.34310333958774E-02
 cg2d: Sum(rhs),rhsMax =  -9.98263971485613E-14  1.33832759362209E-02
(PID.TID 0000.0001) Did not write pickup because writePickupAtEnd = FALSE
(PID.TID 0000.0001)   early fc =  0.000000000000000D+00
 --> objf_atl(bi,bj)       = -0.108329126736632D-03
(PID.TID 0000.0001)   local fc =  0.000000000000000D+00
(PID.TID 0000.0001)  global fc =  0.000000000000000D+00
(PID.TID 0000.0001) grdchk perturb(-)fc: fcpertminus =  0.00000000000000E+00
grad-res -------------------------------
 grad-res     0    2   14    8    1    1    1    1   0.00000000000E+00  0.00000000000E+00  0.00000000000E+00
 grad-res     0    2    2  164    0    1    1    1   0.00000000000E+00  0.00000000000E+00  0.00000000000E+00
(PID.TID 0000.0001)  ADM  ref_cost_function      =  0.00000000000000E+00
(PID.TID 0000.0001)  ADM  adjoint_gradient       =  0.00000000000000E+00
(PID.TID 0000.0001)  ADM  finite-diff_grad       =  0.00000000000000E+00
(PID.TID 0000.0001) ====== End of gradient-check number   2 (ierr=  0) =======
(PID.TID 0000.0001) ====== Starts gradient-check number   3 (=ichknum) =======
 ph-test icomp, ncvarcomp, ichknum          165       82288           3
 ph-grd _loc: bi, bj, icomptest, ichknum            1           1         164           3
 ph-grd -->hit<--           15           8           1           1
(PID.TID 0000.0001) grdchk pos: i,j,k=   15    8    1 ; bi,bj=   1   1 ; iobc=  1 ; rec=   1
(PID.TID 0000.0001) Start initial hydrostatic pressure computation
(PID.TID 0000.0001) Pressure is predetermined for buoyancyRelation OCEANIC
(PID.TID 0000.0001) 
(PID.TID 0000.0001) // =======================================================
(PID.TID 0000.0001) // Model current state
(PID.TID 0000.0001) // =======================================================
(PID.TID 0000.0001) 
 cg2d: Sum(rhs),rhsMax =   0.00000000000000E+00  9.39971892369837E-04
 cg2d: Sum(rhs),rhsMax =   2.19269047363468E-15  2.49251898139463E-03
 cg2d: Sum(rhs),rhsMax =  -3.60822483003176E-16  4.28445462903163E-03
 cg2d: Sum(rhs),rhsMax =  -1.21569421196455E-14  6.02406791961930E-03
 cg2d: Sum(rhs),rhsMax =  -1.98036032017512E-14  8.05529736580133E-03
 cg2d: Sum(rhs),rhsMax =   2.80470091595930E-14  1.00620519432846E-02
 cg2d: Sum(rhs),rhsMax =  -2.90462098817557E-14  1.18376455794596E-02
 cg2d: Sum(rhs),rhsMax =   6.34371027929959E-14  1.32520276169989E-02
 cg2d: Sum(rhs),rhsMax =  -1.47945891648682E-14  1.42030339277758E-02
 cg2d: Sum(rhs),rhsMax =   5.02826946746637E-14  1.46317773060974E-02
 cg2d: Sum(rhs),rhsMax =   5.82364018120174E-14  1.45336819659111E-02
 cg2d: Sum(rhs),rhsMax =  -1.55639390264639E-14  1.39606836158679E-02
 cg2d: Sum(rhs),rhsMax =   8.80545636405827E-15  1.32273077199866E-02
 cg2d: Sum(rhs),rhsMax =   1.42951622761345E-13  1.34310334245280E-02
 cg2d: Sum(rhs),rhsMax =   3.66616459412938E-14  1.33832759812674E-02
(PID.TID 0000.0001) Did not write pickup because writePickupAtEnd = FALSE
(PID.TID 0000.0001)   early fc =  0.000000000000000D+00
 --> objf_atl(bi,bj)       = -0.108329126893852D-03
(PID.TID 0000.0001)   local fc =  0.000000000000000D+00
(PID.TID 0000.0001)  global fc =  0.000000000000000D+00
(PID.TID 0000.0001) grdchk perturb(+)fc: fcpertplus  =  0.00000000000000E+00
(PID.TID 0000.0001) Start initial hydrostatic pressure computation
(PID.TID 0000.0001) Pressure is predetermined for buoyancyRelation OCEANIC
(PID.TID 0000.0001) 
(PID.TID 0000.0001) // =======================================================
(PID.TID 0000.0001) // Model current state
(PID.TID 0000.0001) // =======================================================
(PID.TID 0000.0001) 
 cg2d: Sum(rhs),rhsMax =   0.00000000000000E+00  9.39971892369837E-04
 cg2d: Sum(rhs),rhsMax =  -1.24900090270330E-15  2.49251898139379E-03
 cg2d: Sum(rhs),rhsMax =  -1.33781874467331E-14  4.28445462902043E-03
 cg2d: Sum(rhs),rhsMax =   6.18949336228525E-15  6.02406791961963E-03
 cg2d: Sum(rhs),rhsMax =   1.42247325030098E-15  8.05529736580129E-03
 cg2d: Sum(rhs),rhsMax =  -1.41206490944512E-14  1.00620519432851E-02
 cg2d: Sum(rhs),rhsMax =  -3.40213968108571E-14  1.18376455794621E-02
 cg2d: Sum(rhs),rhsMax =   4.02872180060854E-14  1.32520276170088E-02
 cg2d: Sum(rhs),rhsMax =   7.51261032549966E-14  1.42030339278096E-02
 cg2d: Sum(rhs),rhsMax =  -4.52702111908287E-14  1.46317773061993E-02
 cg2d: Sum(rhs),rhsMax =   5.42205169651311E-14  1.45336819661856E-02
 cg2d: Sum(rhs),rhsMax =   6.52602971662475E-14  1.39606836165357E-02
 cg2d: Sum(rhs),rhsMax =  -6.03614380700890E-14  1.32273076954446E-02
 cg2d: Sum(rhs),rhsMax =  -9.91984272502577E-14  1.34310333840127E-02
 cg2d: Sum(rhs),rhsMax =  -1.81316767156048E-13  1.33832759193477E-02
(PID.TID 0000.0001) Did not write pickup because writePickupAtEnd = FALSE
(PID.TID 0000.0001)   early fc =  0.000000000000000D+00
 --> objf_atl(bi,bj)       = -0.108329126704850D-03
(PID.TID 0000.0001)   local fc =  0.000000000000000D+00
(PID.TID 0000.0001)  global fc =  0.000000000000000D+00
(PID.TID 0000.0001) grdchk perturb(-)fc: fcpertminus =  0.00000000000000E+00
grad-res -------------------------------
 grad-res     0    3   15    8    1    1    1    1   0.00000000000E+00  0.00000000000E+00  0.00000000000E+00
 grad-res     0    3    3  165    0    1    1    1   0.00000000000E+00  0.00000000000E+00  0.00000000000E+00
(PID.TID 0000.0001)  ADM  ref_cost_function      =  0.00000000000000E+00
(PID.TID 0000.0001)  ADM  adjoint_gradient       =  0.00000000000000E+00
(PID.TID 0000.0001)  ADM  finite-diff_grad       =  0.00000000000000E+00
(PID.TID 0000.0001) ====== End of gradient-check number   3 (ierr=  0) =======
(PID.TID 0000.0001) ====== Starts gradient-check number   4 (=ichknum) =======
 ph-test icomp, ncvarcomp, ichknum          166       82288           4
 ph-grd _loc: bi, bj, icomptest, ichknum            1           1         165           4
 ph-grd -->hit<--           16           8           1           1
(PID.TID 0000.0001) grdchk pos: i,j,k=   16    8    1 ; bi,bj=   1   1 ; iobc=  1 ; rec=   1
(PID.TID 0000.0001) Start initial hydrostatic pressure computation
(PID.TID 0000.0001) Pressure is predetermined for buoyancyRelation OCEANIC
(PID.TID 0000.0001) 
(PID.TID 0000.0001) // =======================================================
(PID.TID 0000.0001) // Model current state
(PID.TID 0000.0001) // =======================================================
(PID.TID 0000.0001) 
 cg2d: Sum(rhs),rhsMax =   0.00000000000000E+00  9.39971892369837E-04
 cg2d: Sum(rhs),rhsMax =  -2.35922392732846E-15  2.49251898139462E-03
 cg2d: Sum(rhs),rhsMax =   4.53803661315533E-15  4.28445462903285E-03
 cg2d: Sum(rhs),rhsMax =  -7.39686090156511E-15  6.02406791961939E-03
 cg2d: Sum(rhs),rhsMax =   1.88807303125316E-14  8.05529736580123E-03
 cg2d: Sum(rhs),rhsMax =  -1.47937218031302E-14  1.00620519432844E-02
 cg2d: Sum(rhs),rhsMax =  -4.01588484688631E-14  1.18376455794588E-02
 cg2d: Sum(rhs),rhsMax =   1.09946773907410E-14  1.32520276169960E-02
 cg2d: Sum(rhs),rhsMax =   4.11224873597682E-14  1.42030339277666E-02
 cg2d: Sum(rhs),rhsMax =   3.03142927426947E-14  1.46317773060720E-02
 cg2d: Sum(rhs),rhsMax =  -5.32525412655360E-14  1.45336819658488E-02
 cg2d: Sum(rhs),rhsMax =   1.26332971861487E-13  1.39606836157311E-02
 cg2d: Sum(rhs),rhsMax =  -1.19883269977805E-13  1.32273077239462E-02
 cg2d: Sum(rhs),rhsMax =   6.10275718848641E-14  1.34310334299483E-02
 cg2d: Sum(rhs),rhsMax =  -8.49112447021128E-14  1.33832759879300E-02
(PID.TID 0000.0001) Did not write pickup because writePickupAtEnd = FALSE
(PID.TID 0000.0001)   early fc =  0.000000000000000D+00
 --> objf_atl(bi,bj)       = -0.108329126896713D-03
(PID.TID 0000.0001)   local fc =  0.000000000000000D+00
(PID.TID 0000.0001)  global fc =  0.000000000000000D+00
(PID.TID 0000.0001) grdchk perturb(+)fc: fcpertplus  =  0.00000000000000E+00
(PID.TID 0000.0001) Start initial hydrostatic pressure computation
(PID.TID 0000.0001) Pressure is predetermined for buoyancyRelation OCEANIC
(PID.TID 0000.0001) 
(PID.TID 0000.0001) // =======================================================
(PID.TID 0000.0001) // Model current state
(PID.TID 0000.0001) // =======================================================
(PID.TID 0000.0001) 
 cg2d: Sum(rhs),rhsMax =   0.00000000000000E+00  9.39971892369837E-04
 cg2d: Sum(rhs),rhsMax =  -1.63757896132211E-15  2.49251898139381E-03
 cg2d: Sum(rhs),rhsMax =   7.02216063075412E-15  4.28445462901918E-03
 cg2d: Sum(rhs),rhsMax =   3.26128013483640E-15  6.02406791961953E-03
 cg2d: Sum(rhs),rhsMax =  -3.47638584585752E-15  8.05529736580140E-03
 cg2d: Sum(rhs),rhsMax =   2.60902410786912E-15  1.00620519432853E-02
 cg2d: Sum(rhs),rhsMax =  -9.95037385820297E-15  1.18376455794629E-02
 cg2d: Sum(rhs),rhsMax =   3.97425148346287E-15  1.32520276170117E-02
 cg2d: Sum(rhs),rhsMax =  -3.45292371084494E-14  1.42030339278189E-02
 cg2d: Sum(rhs),rhsMax =   5.85078860360078E-14  1.46317773062248E-02
 cg2d: Sum(rhs),rhsMax =   5.85538562081211E-14  1.45336819662477E-02
 cg2d: Sum(rhs),rhsMax =  -1.98070726487032E-14  1.39606836166721E-02
 cg2d: Sum(rhs),rhsMax =  -1.16920362280837E-15  1.32273076914865E-02
 cg2d: Sum(rhs),rhsMax =   1.24962540315465E-13  1.34310333785938E-02
 cg2d: Sum(rhs),rhsMax =  -5.86371229349680E-14  1.33832759126853E-02
(PID.TID 0000.0001) Did not write pickup because writePickupAtEnd = FALSE
(PID.TID 0000.0001)   early fc =  0.000000000000000D+00
 --> objf_atl(bi,bj)       = -0.108329126702005D-03
(PID.TID 0000.0001)   local fc =  0.000000000000000D+00
(PID.TID 0000.0001)  global fc =  0.000000000000000D+00
(PID.TID 0000.0001) grdchk perturb(-)fc: fcpertminus =  0.00000000000000E+00
grad-res -------------------------------
 grad-res     0    4   16    8    1    1    1    1   0.00000000000E+00  0.00000000000E+00  0.00000000000E+00
 grad-res     0    4    4  166    0    1    1    1   0.00000000000E+00  0.00000000000E+00  0.00000000000E+00
(PID.TID 0000.0001)  ADM  ref_cost_function      =  0.00000000000000E+00
(PID.TID 0000.0001)  ADM  adjoint_gradient       =  0.00000000000000E+00
(PID.TID 0000.0001)  ADM  finite-diff_grad       =  0.00000000000000E+00
(PID.TID 0000.0001) ====== End of gradient-check number   4 (ierr=  0) =======
(PID.TID 0000.0001) ====== Starts gradient-check number   5 (=ichknum) =======
 ph-test icomp, ncvarcomp, ichknum          167       82288           5
 ph-grd _loc: bi, bj, icomptest, ichknum            1           1         166           5
 ph-grd -->hit<--           17           8           1           1
(PID.TID 0000.0001) grdchk pos: i,j,k=   17    8    1 ; bi,bj=   1   1 ; iobc=  1 ; rec=   1
(PID.TID 0000.0001) Start initial hydrostatic pressure computation
(PID.TID 0000.0001) Pressure is predetermined for buoyancyRelation OCEANIC
(PID.TID 0000.0001) 
(PID.TID 0000.0001) // =======================================================
(PID.TID 0000.0001) // Model current state
(PID.TID 0000.0001) // =======================================================
(PID.TID 0000.0001) 
 cg2d: Sum(rhs),rhsMax =  -1.11022302462516E-16  9.39971892369837E-04
 cg2d: Sum(rhs),rhsMax =  -3.91353616180368E-15  2.49251898139506E-03
 cg2d: Sum(rhs),rhsMax =   3.46944695195361E-16  4.28445462903159E-03
 cg2d: Sum(rhs),rhsMax =  -1.05471187339390E-15  6.02406791961944E-03
 cg2d: Sum(rhs),rhsMax =   1.49880108324396E-15  8.05529736580120E-03
 cg2d: Sum(rhs),rhsMax =   5.82381365354934E-14  1.00620519432843E-02
 cg2d: Sum(rhs),rhsMax =  -4.02525235365658E-14  1.18376455794584E-02
 cg2d: Sum(rhs),rhsMax =   1.04864034122798E-14  1.32520276169946E-02
 cg2d: Sum(rhs),rhsMax =  -8.65336448330201E-14  1.42030339277624E-02
 cg2d: Sum(rhs),rhsMax =  -5.03720329336765E-14  1.46317773060607E-02
 cg2d: Sum(rhs),rhsMax =  -1.15059003991114E-13  1.45336819658221E-02
 cg2d: Sum(rhs),rhsMax =  -6.58501031480796E-15  1.39606836156741E-02
 cg2d: Sum(rhs),rhsMax =   1.05835479269345E-13  1.32273077259316E-02
 cg2d: Sum(rhs),rhsMax =   3.19536064274928E-15  1.34310334324869E-02
 cg2d: Sum(rhs),rhsMax =  -2.09637862624845E-13  1.33832759907789E-02
(PID.TID 0000.0001) Did not write pickup because writePickupAtEnd = FALSE
(PID.TID 0000.0001)   early fc =  0.000000000000000D+00
 --> objf_atl(bi,bj)       = -0.108329126894378D-03
(PID.TID 0000.0001)   local fc =  0.000000000000000D+00
(PID.TID 0000.0001)  global fc =  0.000000000000000D+00
(PID.TID 0000.0001) grdchk perturb(+)fc: fcpertplus  =  0.00000000000000E+00
(PID.TID 0000.0001) Start initial hydrostatic pressure computation
(PID.TID 0000.0001) Pressure is predetermined for buoyancyRelation OCEANIC
(PID.TID 0000.0001) 
(PID.TID 0000.0001) // =======================================================
(PID.TID 0000.0001) // Model current state
(PID.TID 0000.0001) // =======================================================
(PID.TID 0000.0001) 
 cg2d: Sum(rhs),rhsMax =   0.00000000000000E+00  9.39971892369837E-04
 cg2d: Sum(rhs),rhsMax =  -1.30451205393456E-15  2.49251898139337E-03
 cg2d: Sum(rhs),rhsMax =   4.92661467177413E-15  4.28445462902038E-03
 cg2d: Sum(rhs),rhsMax =  -1.35724764760425E-14  6.02406791961949E-03
 cg2d: Sum(rhs),rhsMax =   8.59728954694106E-15  8.05529736580143E-03
 cg2d: Sum(rhs),rhsMax =   2.16979212375179E-14  1.00620519432854E-02
 cg2d: Sum(rhs),rhsMax =   1.11681497383387E-14  1.18376455794633E-02
 cg2d: Sum(rhs),rhsMax =   6.03371519414253E-14  1.32520276170131E-02
 cg2d: Sum(rhs),rhsMax =  -1.09569471551385E-14  1.42030339278230E-02
 cg2d: Sum(rhs),rhsMax =   5.47912409887275E-15  1.46317773062360E-02
 cg2d: Sum(rhs),rhsMax =  -3.21513649037541E-14  1.45336819662743E-02
 cg2d: Sum(rhs),rhsMax =   4.86347073724858E-14  1.39606836167289E-02
 cg2d: Sum(rhs),rhsMax =  -1.53734663888017E-13  1.32273076895038E-02
 cg2d: Sum(rhs),rhsMax =   3.77822773067749E-15  1.34310333760593E-02
 cg2d: Sum(rhs),rhsMax =  -7.64215080106823E-14  1.33832759098424E-02
(PID.TID 0000.0001) Did not write pickup because writePickupAtEnd = FALSE
(PID.TID 0000.0001)   early fc =  0.000000000000000D+00
 --> objf_atl(bi,bj)       = -0.108329126704367D-03
(PID.TID 0000.0001)   local fc =  0.000000000000000D+00
(PID.TID 0000.0001)  global fc =  0.000000000000000D+00
(PID.TID 0000.0001) grdchk perturb(-)fc: fcpertminus =  0.00000000000000E+00
grad-res -------------------------------
 grad-res     0    5   17    8    1    1    1    1   0.00000000000E+00  0.00000000000E+00  0.00000000000E+00
 grad-res     0    5    5  167    0    1    1    1   0.00000000000E+00  0.00000000000E+00  0.00000000000E+00
(PID.TID 0000.0001)  ADM  ref_cost_function      =  0.00000000000000E+00
(PID.TID 0000.0001)  ADM  adjoint_gradient       =  0.00000000000000E+00
(PID.TID 0000.0001)  ADM  finite-diff_grad       =  0.00000000000000E+00
(PID.TID 0000.0001) ====== End of gradient-check number   5 (ierr=  0) =======
(PID.TID 0000.0001) 
(PID.TID 0000.0001) // =======================================================
(PID.TID 0000.0001) // Gradient check results  >>> START <<<
(PID.TID 0000.0001) // =======================================================
(PID.TID 0000.0001) 
(PID.TID 0000.0001)  EPS = 1.000000E-05 ; grdchk CTRL var/file name: "xx_theta"
(PID.TID 0000.0001) 
(PID.TID 0000.0001) grdchk output h.p:  Id Itile Jtile LAYER   bi   bj   X(Id)           X(Id)+/-EPS
(PID.TID 0000.0001) grdchk output h.c:  Id  FC                   FC1                  FC2
(PID.TID 0000.0001) grdchk output h.g:  Id     FC1-FC2/(2*EPS)      ADJ GRAD(FC)         1-FDGRD/ADGRD
(PID.TID 0000.0001) 
(PID.TID 0000.0001) grdchk output (p):   1    13     8     1    1    1   0.000000000E+00 -1.000000000E-05
(PID.TID 0000.0001) grdchk output (c):   1  0.0000000000000E+00  0.0000000000000E+00  0.0000000000000E+00
(PID.TID 0000.0001) grdchk output (g):   1     0.0000000000000E+00  0.0000000000000E+00  0.0000000000000E+00
(PID.TID 0000.0001) 
(PID.TID 0000.0001) grdchk output (p):   2    14     8     1    1    1   0.000000000E+00 -1.000000000E-05
(PID.TID 0000.0001) grdchk output (c):   2  0.0000000000000E+00  0.0000000000000E+00  0.0000000000000E+00
(PID.TID 0000.0001) grdchk output (g):   2     0.0000000000000E+00  0.0000000000000E+00  0.0000000000000E+00
(PID.TID 0000.0001) 
(PID.TID 0000.0001) grdchk output (p):   3    15     8     1    1    1   0.000000000E+00 -1.000000000E-05
(PID.TID 0000.0001) grdchk output (c):   3  0.0000000000000E+00  0.0000000000000E+00  0.0000000000000E+00
(PID.TID 0000.0001) grdchk output (g):   3     0.0000000000000E+00  0.0000000000000E+00  0.0000000000000E+00
(PID.TID 0000.0001) 
(PID.TID 0000.0001) grdchk output (p):   4    16     8     1    1    1   0.000000000E+00 -1.000000000E-05
(PID.TID 0000.0001) grdchk output (c):   4  0.0000000000000E+00  0.0000000000000E+00  0.0000000000000E+00
(PID.TID 0000.0001) grdchk output (g):   4     0.0000000000000E+00  0.0000000000000E+00  0.0000000000000E+00
(PID.TID 0000.0001) 
(PID.TID 0000.0001) grdchk output (p):   5    17     8     1    1    1   0.000000000E+00 -1.000000000E-05
(PID.TID 0000.0001) grdchk output (c):   5  0.0000000000000E+00  0.0000000000000E+00  0.0000000000000E+00
(PID.TID 0000.0001) grdchk output (g):   5     0.0000000000000E+00  0.0000000000000E+00  0.0000000000000E+00
(PID.TID 0000.0001) 
(PID.TID 0000.0001) grdchk  summary  :  RMS of    5 ratios =  0.0000000000000E+00
(PID.TID 0000.0001) 
(PID.TID 0000.0001) // =======================================================
(PID.TID 0000.0001) // Gradient check results  >>> END <<<
(PID.TID 0000.0001) // =======================================================
(PID.TID 0000.0001) 
(PID.TID 0000.0001)   Seconds in section "ALL                    [THE_MODEL_MAIN]":
(PID.TID 0000.0001)           User time:   41.608909169444814
(PID.TID 0000.0001)         System time:   3.6177570149302483
(PID.TID 0000.0001)     Wall clock time:   45.569286108016968
(PID.TID 0000.0001)          No. starts:           1
(PID.TID 0000.0001)           No. stops:           1
(PID.TID 0000.0001)   Seconds in section "INITIALISE_FIXED       [THE_MODEL_MAIN]":
(PID.TID 0000.0001)           User time:   5.0988998496904969E-002
(PID.TID 0000.0001)         System time:   1.7619000747799873E-002
(PID.TID 0000.0001)     Wall clock time:  0.11161303520202637
(PID.TID 0000.0001)          No. starts:           1
(PID.TID 0000.0001)           No. stops:           1
(PID.TID 0000.0001)   Seconds in section "FORWARD_STEP        [MAIN_DO_LOOP]":
(PID.TID 0000.0001)           User time:   18.976268887519836
(PID.TID 0000.0001)         System time:   2.5584988296031952E-002
(PID.TID 0000.0001)     Wall clock time:   19.084547042846680
(PID.TID 0000.0001)          No. starts:         180
(PID.TID 0000.0001)           No. stops:         180
(PID.TID 0000.0001)   Seconds in section "DO_STATEVARS_DIAGS  [FORWARD_STEP]":
(PID.TID 0000.0001)           User time:   4.7782942652702332E-002
(PID.TID 0000.0001)         System time:   1.3079568743705750E-003
(PID.TID 0000.0001)     Wall clock time:   4.9250841140747070E-002
(PID.TID 0000.0001)          No. starts:          45
(PID.TID 0000.0001)           No. stops:          45
(PID.TID 0000.0001)   Seconds in section "LOAD_FIELDS_DRIVER  [FORWARD_STEP]":
(PID.TID 0000.0001)           User time:   6.4898878335952759E-003
(PID.TID 0000.0001)         System time:   2.6322156190872192E-004
(PID.TID 0000.0001)     Wall clock time:   6.7212581634521484E-003
(PID.TID 0000.0001)          No. starts:         195
(PID.TID 0000.0001)           No. stops:         195
(PID.TID 0000.0001)   Seconds in section "EXTERNAL_FLDS_LOAD [LOAD_FLDS_DRIVER]":
(PID.TID 0000.0001)           User time:   1.6902759671211243E-003
(PID.TID 0000.0001)         System time:   7.6666474342346191E-005
(PID.TID 0000.0001)     Wall clock time:   1.7306804656982422E-003
(PID.TID 0000.0001)          No. starts:         210
(PID.TID 0000.0001)           No. stops:         210
(PID.TID 0000.0001)   Seconds in section "CTRL_MAP_FORCING  [FORWARD_STEP]":
(PID.TID 0000.0001)           User time:  0.23093315958976746
(PID.TID 0000.0001)         System time:   1.6259849071502686E-003
(PID.TID 0000.0001)     Wall clock time:  0.23338341712951660
(PID.TID 0000.0001)          No. starts:         195
(PID.TID 0000.0001)           No. stops:         195
(PID.TID 0000.0001)   Seconds in section "DO_ATMOSPHERIC_PHYS [FORWARD_STEP]":
(PID.TID 0000.0001)           User time:   3.9854831993579865E-002
(PID.TID 0000.0001)         System time:   6.7148357629776001E-004
(PID.TID 0000.0001)     Wall clock time:   4.0641784667968750E-002
(PID.TID 0000.0001)          No. starts:         195
(PID.TID 0000.0001)           No. stops:         195
(PID.TID 0000.0001)   Seconds in section "DO_OCEANIC_PHYS     [FORWARD_STEP]":
(PID.TID 0000.0001)           User time:   5.1267796382308006
(PID.TID 0000.0001)         System time:   7.7181309461593628E-004
(PID.TID 0000.0001)     Wall clock time:   5.1435852050781250
(PID.TID 0000.0001)          No. starts:         195
(PID.TID 0000.0001)           No. stops:         195
(PID.TID 0000.0001)   Seconds in section "DYNAMICS            [FORWARD_STEP]":
(PID.TID 0000.0001)           User time:   6.5131483450531960
(PID.TID 0000.0001)         System time:   4.2718797922134399E-003
(PID.TID 0000.0001)     Wall clock time:   6.5388438701629639
(PID.TID 0000.0001)          No. starts:         195
(PID.TID 0000.0001)           No. stops:         195
(PID.TID 0000.0001)   Seconds in section "SOLVE_FOR_PRESSURE  [FORWARD_STEP]":
(PID.TID 0000.0001)           User time:  0.33533817529678345
(PID.TID 0000.0001)         System time:   1.0198354721069336E-003
(PID.TID 0000.0001)     Wall clock time:  0.33748650550842285
(PID.TID 0000.0001)          No. starts:         195
(PID.TID 0000.0001)           No. stops:         195
(PID.TID 0000.0001)   Seconds in section "MOM_CORRECTION_STEP [FORWARD_STEP]":
(PID.TID 0000.0001)           User time:  0.14222966134548187
(PID.TID 0000.0001)         System time:   1.7280802130699158E-003
(PID.TID 0000.0001)     Wall clock time:  0.14448070526123047
(PID.TID 0000.0001)          No. starts:         195
(PID.TID 0000.0001)           No. stops:         195
(PID.TID 0000.0001)   Seconds in section "INTEGR_CONTINUITY   [FORWARD_STEP]":
(PID.TID 0000.0001)           User time:  0.24700763821601868
(PID.TID 0000.0001)         System time:   1.2419223785400391E-003
(PID.TID 0000.0001)     Wall clock time:  0.24913454055786133
(PID.TID 0000.0001)          No. starts:         195
(PID.TID 0000.0001)           No. stops:         195
(PID.TID 0000.0001)   Seconds in section "BLOCKING_EXCHANGES  [FORWARD_STEP]":
(PID.TID 0000.0001)           User time:  0.14582125842571259
(PID.TID 0000.0001)         System time:   7.1656703948974609E-004
(PID.TID 0000.0001)     Wall clock time:  0.14712429046630859
(PID.TID 0000.0001)          No. starts:         390
(PID.TID 0000.0001)           No. stops:         390
(PID.TID 0000.0001)   Seconds in section "THERMODYNAMICS      [FORWARD_STEP]":
(PID.TID 0000.0001)           User time:   7.3288804739713669
(PID.TID 0000.0001)         System time:   5.5400729179382324E-003
(PID.TID 0000.0001)     Wall clock time:   7.3576364517211914
(PID.TID 0000.0001)          No. starts:         195
(PID.TID 0000.0001)           No. stops:         195
(PID.TID 0000.0001)   Seconds in section "TRC_CORRECTION_STEP [FORWARD_STEP]":
(PID.TID 0000.0001)           User time:   1.6035586595535278E-003
(PID.TID 0000.0001)         System time:   6.1020255088806152E-006
(PID.TID 0000.0001)     Wall clock time:   1.6362667083740234E-003
(PID.TID 0000.0001)          No. starts:         195
(PID.TID 0000.0001)           No. stops:         195
(PID.TID 0000.0001)   Seconds in section "MONITOR             [FORWARD_STEP]":
(PID.TID 0000.0001)           User time:  0.11454810202121735
(PID.TID 0000.0001)         System time:   9.5399469137191772E-004
(PID.TID 0000.0001)     Wall clock time:  0.11593413352966309
(PID.TID 0000.0001)          No. starts:          15
(PID.TID 0000.0001)           No. stops:          15
(PID.TID 0000.0001)   Seconds in section "COST_TILE           [FORWARD_STEP]":
(PID.TID 0000.0001)           User time:  0.20313081145286560
(PID.TID 0000.0001)         System time:   3.0994415283203125E-005
(PID.TID 0000.0001)     Wall clock time:  0.20400810241699219
(PID.TID 0000.0001)          No. starts:         195
(PID.TID 0000.0001)           No. stops:         195
(PID.TID 0000.0001)   Seconds in section "DO_THE_MODEL_IO     [FORWARD_STEP]":
(PID.TID 0000.0001)           User time:   4.0619224309921265E-003
(PID.TID 0000.0001)         System time:   2.7239918708801270E-003
(PID.TID 0000.0001)     Wall clock time:   1.7782926559448242E-002
(PID.TID 0000.0001)          No. starts:         195
(PID.TID 0000.0001)           No. stops:         195
(PID.TID 0000.0001)   Seconds in section "DO_WRITE_PICKUP     [FORWARD_STEP]":
(PID.TID 0000.0001)           User time:   6.6068321466445923E-003
(PID.TID 0000.0001)         System time:   3.2630562782287598E-003
(PID.TID 0000.0001)     Wall clock time:   2.1255731582641602E-002
(PID.TID 0000.0001)          No. starts:         195
(PID.TID 0000.0001)           No. stops:         195
(PID.TID 0000.0001)   Seconds in section "CTRL_PACK           [THE_MODEL_MAIN]":
(PID.TID 0000.0001)           User time:   1.8768310546875000E-003
(PID.TID 0000.0001)         System time:   1.9669532775878906E-003
(PID.TID 0000.0001)     Wall clock time:   5.6800842285156250E-003
(PID.TID 0000.0001)          No. starts:           1
(PID.TID 0000.0001)           No. stops:           1
(PID.TID 0000.0001)   Seconds in section "CTRL_PACK     [THE_MODEL_MAIN]":
(PID.TID 0000.0001)           User time:   3.1967163085937500E-003
(PID.TID 0000.0001)         System time:   0.0000000000000000
(PID.TID 0000.0001)     Wall clock time:   4.7051906585693359E-003
(PID.TID 0000.0001)          No. starts:           1
(PID.TID 0000.0001)           No. stops:           1
(PID.TID 0000.0001)   Seconds in section "GRDCHK_MAIN         [THE_MODEL_MAIN]":
(PID.TID 0000.0001)           User time:   17.345537185668945
(PID.TID 0000.0001)         System time:   6.1736106872558594E-002
(PID.TID 0000.0001)     Wall clock time:   17.553488016128540
(PID.TID 0000.0001)          No. starts:           1
(PID.TID 0000.0001)           No. stops:           1
(PID.TID 0000.0001)   Seconds in section "INITIALISE_VARIA    [THE_MAIN_LOOP]":
(PID.TID 0000.0001)           User time:  0.13937187194824219
(PID.TID 0000.0001)         System time:   3.4064292907714844E-002
(PID.TID 0000.0001)     Wall clock time:  0.21874165534973145
(PID.TID 0000.0001)          No. starts:          11
(PID.TID 0000.0001)           No. stops:          11
(PID.TID 0000.0001)   Seconds in section "MAIN LOOP           [THE_MAIN_LOOP]":
(PID.TID 0000.0001)           User time:   17.184461593627930
(PID.TID 0000.0001)         System time:   6.4401626586914062E-003
(PID.TID 0000.0001)     Wall clock time:   17.245820045471191
(PID.TID 0000.0001)          No. starts:          11
(PID.TID 0000.0001)           No. stops:          11
(PID.TID 0000.0001)   Seconds in section "MAIN_DO_LOOP        [THE_MAIN_LOOP]":
(PID.TID 0000.0001)           User time:   17.182302474975586
(PID.TID 0000.0001)         System time:   6.4020156860351562E-003
(PID.TID 0000.0001)     Wall clock time:   17.243609905242920
(PID.TID 0000.0001)          No. starts:         165
(PID.TID 0000.0001)           No. stops:         165
(PID.TID 0000.0001)   Seconds in section "COST_FINAL         [ADJOINT SPIN-DOWN]":
(PID.TID 0000.0001)           User time:   5.7411193847656250E-004
(PID.TID 0000.0001)         System time:   1.1920928955078125E-005
(PID.TID 0000.0001)     Wall clock time:   5.9223175048828125E-004
(PID.TID 0000.0001)          No. starts:          11
(PID.TID 0000.0001)           No. stops:          11
(PID.TID 0000.0001) // ======================================================
(PID.TID 0000.0001) // Tile <-> Tile communication statistics
(PID.TID 0000.0001) // ======================================================
(PID.TID 0000.0001) // o Tile number: 000001
(PID.TID 0000.0001) //         No. X exchanges =              0
(PID.TID 0000.0001) //            Max. X spins =              0
(PID.TID 0000.0001) //            Min. X spins =     1000000000
(PID.TID 0000.0001) //          Total. X spins =              0
(PID.TID 0000.0001) //            Avg. X spins =       0.00E+00
(PID.TID 0000.0001) //         No. Y exchanges =              0
(PID.TID 0000.0001) //            Max. Y spins =              0
(PID.TID 0000.0001) //            Min. Y spins =     1000000000
(PID.TID 0000.0001) //          Total. Y spins =              0
(PID.TID 0000.0001) //            Avg. Y spins =       0.00E+00
(PID.TID 0000.0001) // o Thread number: 000001
(PID.TID 0000.0001) //            No. barriers =          54898
(PID.TID 0000.0001) //      Max. barrier spins =              1
(PID.TID 0000.0001) //      Min. barrier spins =              1
(PID.TID 0000.0001) //     Total barrier spins =          54898
(PID.TID 0000.0001) //      Avg. barrier spins =       1.00E+00
STOP NORMAL END
** WARNING ** CTRL_CHECK: ALLOW_GENTIM2D_CONTROL is unsafe without pkg/cal (currently: useCAL=F)
** WARNING ** CTRL_CHECK: relying on mdsio_gl.F to pack/unpack the controlvector is unsafe when useSingleCpuIO is true.
PROGRAM MAIN: Execution ended Normally
