(PID.TID 0000.0001) 
(PID.TID 0000.0001) // ======================================================
(PID.TID 0000.0001) //                      MITgcm UV
(PID.TID 0000.0001) //                      =========
(PID.TID 0000.0001) // ======================================================
(PID.TID 0000.0001) // execution environment starting up...
(PID.TID 0000.0001) 
(PID.TID 0000.0001) // MITgcmUV version:  checkpoint69c
(PID.TID 0000.0001) // Build user:        tshahriar
(PID.TID 0000.0001) // Build host:        sverdrup.oden.utexas.edu
(PID.TID 0000.0001) // Build date:        Wed Jul  9 11:51:09 AM CDT 2025
(PID.TID 0000.0001) 
(PID.TID 0000.0001) // =======================================================
(PID.TID 0000.0001) // Execution Environment parameter file "eedata"
(PID.TID 0000.0001) // =======================================================
(PID.TID 0000.0001) ># Example "eedata" file
(PID.TID 0000.0001) ># Lines beginning "#" are comments
(PID.TID 0000.0001) >#  nTx      :: No. threads per process in X
(PID.TID 0000.0001) >#  nTy      :: No. threads per process in Y
(PID.TID 0000.0001) ># debugMode :: print debug msg (sequence of S/R calls)
(PID.TID 0000.0001) > &EEPARMS
(PID.TID 0000.0001) > nTx=1,
(PID.TID 0000.0001) > nTy=1,
(PID.TID 0000.0001) > /
(PID.TID 0000.0001) ># Note: Some systems use & as the namelist terminator (as shown here).
(PID.TID 0000.0001) >#       Other systems use a / character.
(PID.TID 0000.0001) 
(PID.TID 0000.0001) // =======================================================
(PID.TID 0000.0001) // Computational Grid Specification ( see files "SIZE.h" )
(PID.TID 0000.0001) //                                  ( and "eedata"       )
(PID.TID 0000.0001) // =======================================================
(PID.TID 0000.0001)      nPx =    1 ; /* No. processes in X */
(PID.TID 0000.0001)      nPy =    1 ; /* No. processes in Y */
(PID.TID 0000.0001)      nSx =    1 ; /* No. tiles in X per process */
(PID.TID 0000.0001)      nSy =    1 ; /* No. tiles in Y per process */
(PID.TID 0000.0001)      sNx =   62 ; /* Tile size in X */
(PID.TID 0000.0001)      sNy =   62 ; /* Tile size in Y */
(PID.TID 0000.0001)      OLx =    4 ; /* Tile overlap distance in X */
(PID.TID 0000.0001)      OLy =    4 ; /* Tile overlap distance in Y */
(PID.TID 0000.0001)      nTx =    1 ; /* No. threads in X per process */
(PID.TID 0000.0001)      nTy =    1 ; /* No. threads in Y per process */
(PID.TID 0000.0001)       Nr =   31 ; /* No. levels in the vertical   */
(PID.TID 0000.0001)       Nx =   62 ; /* Total domain size in X ( = nPx*nSx*sNx ) */
(PID.TID 0000.0001)       Ny =   62 ; /* Total domain size in Y ( = nPy*nSy*sNy ) */
(PID.TID 0000.0001)   nTiles =    1 ; /* Total no. tiles per process ( = nSx*nSy ) */
(PID.TID 0000.0001)   nProcs =    1 ; /* Total no. processes ( = nPx*nPy ) */
(PID.TID 0000.0001) nThreads =    1 ; /* Total no. threads per process ( = nTx*nTy ) */
(PID.TID 0000.0001) usingMPI =    F ; /* Flag used to control whether MPI is in use */
(PID.TID 0000.0001)                   /*  note: To execute a program with MPI calls */
(PID.TID 0000.0001)                   /*  it must be launched appropriately e.g     */
(PID.TID 0000.0001)                   /*  "mpirun -np 64 ......"                    */
(PID.TID 0000.0001) useCoupler=   F ; /* Flag used to control communications with   */
(PID.TID 0000.0001)                   /*  other model components, through a coupler */
(PID.TID 0000.0001) useNest2W_parent =    F ;/* Control 2-W Nesting comm */
(PID.TID 0000.0001) useNest2W_child  =    F ;/* Control 2-W Nesting comm */
(PID.TID 0000.0001) debugMode =    F ; /* print debug msg. (sequence of S/R calls)  */
(PID.TID 0000.0001) printMapIncludesZeros=    F ; /* print zeros in Std.Output maps */
(PID.TID 0000.0001) maxLengthPrt1D=   65 /* maxLength of 1D array printed to StdOut */
(PID.TID 0000.0001) 
(PID.TID 0000.0001) // ======================================================
(PID.TID 0000.0001) // Mapping of tiles to threads
(PID.TID 0000.0001) // ======================================================
(PID.TID 0000.0001) // -o- Thread   1, tiles (   1:   1,   1:   1)
(PID.TID 0000.0001) 
(PID.TID 0000.0001) // ======================================================
(PID.TID 0000.0001) // Tile <-> Tile connectvity table
(PID.TID 0000.0001) // ======================================================
(PID.TID 0000.0001) // Tile number: 000001 (process no. = 000000)
(PID.TID 0000.0001) //        WEST: Tile = 000001, Process = 000000, Comm = put
(PID.TID 0000.0001) //                bi = 000001, bj = 000001
(PID.TID 0000.0001) //        EAST: Tile = 000001, Process = 000000, Comm = put
(PID.TID 0000.0001) //                bi = 000001, bj = 000001
(PID.TID 0000.0001) //       SOUTH: Tile = 000001, Process = 000000, Comm = put
(PID.TID 0000.0001) //                bi = 000001, bj = 000001
(PID.TID 0000.0001) //       NORTH: Tile = 000001, Process = 000000, Comm = put
(PID.TID 0000.0001) //                bi = 000001, bj = 000001
(PID.TID 0000.0001) 
(PID.TID 0000.0001)  INI_PARMS: opening model parameter file "data"
(PID.TID 0000.0001)  OPEN_COPY_DATA_FILE: opening file data
(PID.TID 0000.0001) // =======================================================
(PID.TID 0000.0001) // Parameter file "data"
(PID.TID 0000.0001) // =======================================================
(PID.TID 0000.0001) ># Model parameters
(PID.TID 0000.0001) ># Continuous equation parameters
(PID.TID 0000.0001) > &PARM01
(PID.TID 0000.0001) > tRef=23.,23.,23.,22.,21.,20.,19.,17.,16.,15.,14.,12.,11.,10.,9.,8.,
(PID.TID 0000.0001) >      7.,6.,6.,5.,5.,4.,4.,3.,3.,2.,2.,1.,1.,1.,1.,
(PID.TID 0000.0001) > sRef=31*34.5,
(PID.TID 0000.0001) > no_slip_sides=.TRUE.,
(PID.TID 0000.0001) > no_slip_bottom=.TRUE.,
(PID.TID 0000.0001) > bottomDragQuadratic=0.0021,
(PID.TID 0000.0001) > rhonil=1027.5,
(PID.TID 0000.0001) > rhoConstFresh=999.8,
(PID.TID 0000.0001) > eosType='JMD95Z',
(PID.TID 0000.0001) > hFacMinDr=50.,
(PID.TID 0000.0001) > hFacMin=0.3,
(PID.TID 0000.0001) > hFacInf=0.1,
(PID.TID 0000.0001) > hFacSup=5.,
(PID.TID 0000.0001) > implicitFreeSurface=.TRUE.,
(PID.TID 0000.0001) > implicitDiffusion=.TRUE.,
(PID.TID 0000.0001) > implicitViscosity=.TRUE.,
(PID.TID 0000.0001) > viscC4Leith=2.15,
(PID.TID 0000.0001) > viscC4Leithd=2.15,
(PID.TID 0000.0001) > viscA4GridMax=0.8,
(PID.TID 0000.0001) > useAreaViscLength=.TRUE.,
(PID.TID 0000.0001) > tempAdvScheme=33,
(PID.TID 0000.0001) > saltAdvScheme=33,
(PID.TID 0000.0001) > StaggerTimeStep=.TRUE.,
(PID.TID 0000.0001) > vectorInvariantMomentum=.TRUE.,
(PID.TID 0000.0001) > exactConserv=.TRUE.,
(PID.TID 0000.0001) > debuglevel=0,
(PID.TID 0000.0001) > useSingleCPUio=.TRUE.,
(PID.TID 0000.0001) > tempForcing = .TRUE.,
(PID.TID 0000.0001) > saltForcing = .FALSE.,
(PID.TID 0000.0001) > saltStepping=.TRUE.,
(PID.TID 0000.0001) > /
(PID.TID 0000.0001) >
(PID.TID 0000.0001) ># Elliptic solver parameters
(PID.TID 0000.0001) > &PARM02
(PID.TID 0000.0001) > cg2dTargetResidual=1.E-5,
(PID.TID 0000.0001) > cg2dMaxIters=100,
(PID.TID 0000.0001) > /
(PID.TID 0000.0001) >
(PID.TID 0000.0001) ># Time stepping parameters
(PID.TID 0000.0001) > &PARM03
(PID.TID 0000.0001) > startTime=0.,
(PID.TID 0000.0001) > deltaT=1200.,
(PID.TID 0000.0001) >#-for longer run
(PID.TID 0000.0001) ># pChkptFreq=622080000.,
(PID.TID 0000.0001) ># chkptFreq=155520000.,
(PID.TID 0000.0001) ># ----------
(PID.TID 0000.0001) >#-for shorter run
(PID.TID 0000.0001) > pChkptFreq=31104000.,
(PID.TID 0000.0001) > chkptFreq=2592000.,
(PID.TID 0000.0001) >#------
(PID.TID 0000.0001) > dumpFreq=0,
(PID.TID 0000.0001) > monitorFreq=2592000.,
(PID.TID 0000.0001) > monitorSelect=2,
(PID.TID 0000.0001) > tauThetaClimRelax=2592000.,
(PID.TID 0000.0001) >#-run for 1 yrs
(PID.TID 0000.0001) > endTime = 31104000.,
(PID.TID 0000.0001) > /
(PID.TID 0000.0001) >
(PID.TID 0000.0001) ># Gridding parameters
(PID.TID 0000.0001) > &PARM04
(PID.TID 0000.0001) > usingSphericalPolarGrid=.TRUE.,
(PID.TID 0000.0001) > delX=62*1.,
(PID.TID 0000.0001) > delY=62*1.,
(PID.TID 0000.0001) > xgOrigin=-1.,
(PID.TID 0000.0001) > ygOrigin=14.,
(PID.TID 0000.0001) > delR=10., 11.33, 12.83, 14.53, 16.45, 18.63, 21.1, 23.9, 27.07, 30.65,
(PID.TID 0000.0001) >      34.72, 39.32, 44.53, 50.43, 57.12, 64.69, 73.26, 82.97, 93.97,
(PID.TID 0000.0001) >      106.42, 120.53, 136.5, 154.59, 175.08, 198.29, 224.57, 254.34,
(PID.TID 0000.0001) >      288.05, 326.23, 369.47, 418.43,
(PID.TID 0000.0001) > /
(PID.TID 0000.0001) >
(PID.TID 0000.0001) > &PARM05
(PID.TID 0000.0001) > bathyFile='bathy.bin',
(PID.TID 0000.0001) > zonalWindFile='wind.bin',
(PID.TID 0000.0001) > thetaClimFile='SST_relax.bin',
(PID.TID 0000.0001) > /
(PID.TID 0000.0001) 
(PID.TID 0000.0001)  INI_PARMS ; starts to read PARM01
(PID.TID 0000.0001)  INI_PARMS ; read PARM01 : OK
(PID.TID 0000.0001)  INI_PARMS ; starts to read PARM02
(PID.TID 0000.0001)  INI_PARMS ; read PARM02 : OK
(PID.TID 0000.0001)  INI_PARMS ; starts to read PARM03
(PID.TID 0000.0001)  INI_PARMS ; read PARM03 : OK
(PID.TID 0000.0001)  INI_PARMS ; starts to read PARM04
(PID.TID 0000.0001)  INI_PARMS ; read PARM04 : OK
(PID.TID 0000.0001)  INI_PARMS ; starts to read PARM05
(PID.TID 0000.0001)  INI_PARMS ; read PARM05 : OK
(PID.TID 0000.0001)  INI_PARMS: finished reading file "data"
(PID.TID 0000.0001)  PACKAGES_BOOT: opening data.pkg
(PID.TID 0000.0001)  OPEN_COPY_DATA_FILE: opening file data.pkg
(PID.TID 0000.0001) // =======================================================
(PID.TID 0000.0001) // Parameter file "data.pkg"
(PID.TID 0000.0001) // =======================================================
(PID.TID 0000.0001) ># Packages (lines beginning "#" are comments)
(PID.TID 0000.0001) > &PACKAGES
(PID.TID 0000.0001) > useDiagnostics=.TRUE.,
(PID.TID 0000.0001) > useGMRedi=.TRUE.,
(PID.TID 0000.0001) > useGrdchk=.TRUE.,
(PID.TID 0000.0001) >
(PID.TID 0000.0001) > /
(PID.TID 0000.0001) 
(PID.TID 0000.0001)  PACKAGES_BOOT: finished reading data.pkg
(PID.TID 0000.0001)  PACKAGES_BOOT: On/Off package Summary
 --------  pkgs with a standard "usePKG" On/Off switch in "data.pkg":  --------
 pkg/gmredi               compiled   and   used ( useGMRedi                = T )
 pkg/autodiff             compiled   and   used ( useAUTODIFF              = T )
 pkg/grdchk               compiled   and   used ( useGrdchk                = T )
 pkg/ctrl                 compiled   and   used ( useCTRL                  = T )
 pkg/diagnostics          compiled   and   used ( useDiagnostics           = T )
 -------- pkgs without standard "usePKG" On/Off switch in "data.pkg":  --------
 pkg/generic_advdiff      compiled   and   used ( useGAD                   = T )
 pkg/mom_common           compiled   and   used ( momStepping              = T )
 pkg/mom_vecinv           compiled   and   used ( +vectorInvariantMomentum = T )
 pkg/mom_fluxform         compiled but not used ( & not vectorInvariantMom = F )
 pkg/monitor              compiled   and   used ( monitorFreq > 0.         = T )
 pkg/debug                compiled but not used ( debugMode                = F )
 pkg/rw                   compiled   and   used
 pkg/mdsio                compiled   and   used
 pkg/autodiff             compiled   and   used
 pkg/cost                 compiled   and   used
(PID.TID 0000.0001)  PACKAGES_BOOT: End of package Summary
(PID.TID 0000.0001) 
(PID.TID 0000.0001)  GM_READPARMS: opening data.gmredi
(PID.TID 0000.0001)  OPEN_COPY_DATA_FILE: opening file data.gmredi
(PID.TID 0000.0001) // =======================================================
(PID.TID 0000.0001) // Parameter file "data.gmredi"
(PID.TID 0000.0001) // =======================================================
(PID.TID 0000.0001) ># GM+Redi package parameters:
(PID.TID 0000.0001) >#     GM_Small_Number  :: epsilon used in computing the slope
(PID.TID 0000.0001) >#     GM_slopeSqCutoff :: slope^2 cut-off value
(PID.TID 0000.0001) >
(PID.TID 0000.0001) >#-from MOM :
(PID.TID 0000.0001) ># GM_background_K: 	G & Mc.W  diffusion coefficient
(PID.TID 0000.0001) ># GM_maxSlope    :	max slope of isopycnals
(PID.TID 0000.0001) ># GM_Scrit       :	transition for scaling diffusion coefficient
(PID.TID 0000.0001) ># GM_Sd          :	half width scaling for diffusion coefficient
(PID.TID 0000.0001) ># GM_taper_scheme:	slope clipping or one of the tapering schemes
(PID.TID 0000.0001) ># GM_Kmin_horiz  :	horizontal diffusion minimum value
(PID.TID 0000.0001) >
(PID.TID 0000.0001) >#-Option parameters (needs to "define" options in GMREDI_OPTIONS.h")
(PID.TID 0000.0001) ># GM_isopycK     :	isopycnal diffusion coefficient (default=GM_background_K)
(PID.TID 0000.0001) ># GM_AdvForm     :	turn on GM Advective form       (default=Skew flux form)
(PID.TID 0000.0001) >
(PID.TID 0000.0001) > &GM_PARM01
(PID.TID 0000.0001) >  GM_Small_Number  = 1.D-20,
(PID.TID 0000.0001) >  GM_slopeSqCutoff = 1.D+08,
(PID.TID 0000.0001) >  GM_AdvForm         = .FALSE.,
(PID.TID 0000.0001) >#  GM_isopycK         = 1.1D+3,
(PID.TID 0000.0001) >#  GM_background_K    = 0.9D+3,
(PID.TID 0000.0001) >  GM_background_K    = 1.D+3,
(PID.TID 0000.0001) >  GM_taper_scheme    = 'dm95',
(PID.TID 0000.0001) >  GM_maxSlope        = 1.D-2,
(PID.TID 0000.0001) >  GM_Kmin_horiz      = 50.,
(PID.TID 0000.0001) >  GM_Scrit           = 4.D-3,
(PID.TID 0000.0001) >  GM_Sd              = 1.D-3,
(PID.TID 0000.0001) >#  GM_Visbeck_alpha   = 1.5D-2,
(PID.TID 0000.0001) >  GM_Visbeck_alpha   = 0.,
(PID.TID 0000.0001) >  GM_Visbeck_length  = 2.D+5,
(PID.TID 0000.0001) >  GM_Visbeck_depth   = 1.D+3,
(PID.TID 0000.0001) >  GM_Visbeck_maxval_K= 2.5D+3,
(PID.TID 0000.0001) > /
(PID.TID 0000.0001) >
(PID.TID 0000.0001) >
(PID.TID 0000.0001) 
(PID.TID 0000.0001)  GM_READPARMS: finished reading data.gmredi
(PID.TID 0000.0001) AUTODIFF_READPARMS: opening data.autodiff
(PID.TID 0000.0001)  OPEN_COPY_DATA_FILE: opening file data.autodiff
(PID.TID 0000.0001) // =======================================================
(PID.TID 0000.0001) // Parameter file "data.autodiff"
(PID.TID 0000.0001) // =======================================================
(PID.TID 0000.0001) ># =========================
(PID.TID 0000.0001) ># pkg AUTODIFF parameters :
(PID.TID 0000.0001) ># =========================
(PID.TID 0000.0001) >#  inAdExact :: get an exact adjoint (no approximation) (def=.True.)
(PID.TID 0000.0001) >#
(PID.TID 0000.0001) > &AUTODIFF_PARM01
(PID.TID 0000.0001) ># inAdExact = .FALSE.,
(PID.TID 0000.0001) ># useKPPinAdMode = .FALSE.,
(PID.TID 0000.0001) ># useGMRediInAdMode = .FALSE.,
(PID.TID 0000.0001) > /
(PID.TID 0000.0001) 
(PID.TID 0000.0001) AUTODIFF_READPARMS: finished reading data.autodiff
(PID.TID 0000.0001) // ===================================
(PID.TID 0000.0001) // AUTODIFF parameters :
(PID.TID 0000.0001) // ===================================
(PID.TID 0000.0001) inAdExact = /* get an exact adjoint (no approximation) */
(PID.TID 0000.0001)                   T
(PID.TID 0000.0001)     ;
(PID.TID 0000.0001) useApproxAdvectionInAdMode = /* approximate AD-advection */
(PID.TID 0000.0001)                   F
(PID.TID 0000.0001)     ;
(PID.TID 0000.0001) cg2dFullAdjoint = /* use full hand written cg2d adjoint (no approximation) */
(PID.TID 0000.0001)                   F
(PID.TID 0000.0001)     ;
(PID.TID 0000.0001) useKPPinAdMode = /* use KPP in adjoint mode */
(PID.TID 0000.0001)                   F
(PID.TID 0000.0001)     ;
(PID.TID 0000.0001) useGMRediInAdMode = /* use GMRedi in adjoint mode */
(PID.TID 0000.0001)                   T
(PID.TID 0000.0001)     ;
(PID.TID 0000.0001) useSEAICEinAdMode = /* use SEAICE in adjoint mode */
(PID.TID 0000.0001)                   F
(PID.TID 0000.0001)     ;
(PID.TID 0000.0001) useGGL90inAdMode = /* use GGL90 in adjoint mode */
(PID.TID 0000.0001)                   F
(PID.TID 0000.0001)     ;
(PID.TID 0000.0001) useSALT_PLUMEinAdMode = /* use SALT_PLUME in adjoint mode */
(PID.TID 0000.0001)                   F
(PID.TID 0000.0001)     ;
(PID.TID 0000.0001) dumpAdVarExch = /* control adexch before dumpinp */
(PID.TID 0000.0001)                       2
(PID.TID 0000.0001)     ;
(PID.TID 0000.0001) mon_AdVarExch = /* control adexch before monitor */
(PID.TID 0000.0001)                       2
(PID.TID 0000.0001)     ;
(PID.TID 0000.0001) viscFacInFw = /* viscosity factor for forward model */
(PID.TID 0000.0001)                 1.000000000000000E+00
(PID.TID 0000.0001)     ;
(PID.TID 0000.0001) viscFacInAd = /* viscosity factor for adjoint */
(PID.TID 0000.0001)                 1.000000000000000E+00
(PID.TID 0000.0001)     ;
(PID.TID 0000.0001) SIregFacInAd = /* sea ice factor for adjoint model */
(PID.TID 0000.0001)                 1.234567000000000E+05
(PID.TID 0000.0001)     ;
(PID.TID 0000.0001) SIregFacInFw = /* sea ice factor for forward model */
(PID.TID 0000.0001)                 1.234567000000000E+05
(PID.TID 0000.0001)     ;
(PID.TID 0000.0001) 
(PID.TID 0000.0001) OPTIM_READPARMS: opening data.optim
(PID.TID 0000.0001)  OPEN_COPY_DATA_FILE: opening file data.optim
(PID.TID 0000.0001) // =======================================================
(PID.TID 0000.0001) // Parameter file "data.optim"
(PID.TID 0000.0001) // =======================================================
(PID.TID 0000.0001) >#
(PID.TID 0000.0001) ># ********************************
(PID.TID 0000.0001) ># Off-line optimization parameters
(PID.TID 0000.0001) ># ********************************
(PID.TID 0000.0001) > &OPTIM
(PID.TID 0000.0001) > optimcycle=0,
(PID.TID 0000.0001) > /
(PID.TID 0000.0001) 
(PID.TID 0000.0001) OPTIM_READPARMS: finished reading data.optim
(PID.TID 0000.0001) CTRL_READPARMS: opening data.ctrl
(PID.TID 0000.0001)  OPEN_COPY_DATA_FILE: opening file data.ctrl
(PID.TID 0000.0001) // =======================================================
(PID.TID 0000.0001) // Parameter file "data.ctrl"
(PID.TID 0000.0001) // =======================================================
(PID.TID 0000.0001) ># *********************
(PID.TID 0000.0001) ># ECCO controlvariables
(PID.TID 0000.0001) ># *********************
(PID.TID 0000.0001) > &CTRL_NML
(PID.TID 0000.0001) ># doSinglePrecTapelev=.TRUE.,
(PID.TID 0000.0001) > /
(PID.TID 0000.0001) >#
(PID.TID 0000.0001) ># *********************
(PID.TID 0000.0001) ># names for ctrl_pack/unpack
(PID.TID 0000.0001) ># *********************
(PID.TID 0000.0001) > &CTRL_PACKNAMES
(PID.TID 0000.0001) > /
(PID.TID 0000.0001) >#
(PID.TID 0000.0001) ># *********************
(PID.TID 0000.0001) ># names for CTRL_GENARR, CTRL_GENTIM
(PID.TID 0000.0001) ># *********************
(PID.TID 0000.0001) > &CTRL_NML_GENARR
(PID.TID 0000.0001) > xx_genarr3d_file(1)       = 'xx_theta',
(PID.TID 0000.0001) > xx_genarr3d_weight(1)     = 'ones_64b.bin',
(PID.TID 0000.0001) > xx_genarr3d_bounds(1:5,1) = -2.,-1.9,39.,40.,5.,
(PID.TID 0000.0001) >#
(PID.TID 0000.0001) > xx_genarr3d_file(2)       = 'xx_salt',
(PID.TID 0000.0001) > xx_genarr3d_weight(2)     = 'ones_64b.bin',
(PID.TID 0000.0001) > xx_genarr3d_bounds(1:5,2) = 29.,29.5,40.5,41.,5.,
(PID.TID 0000.0001) >#
(PID.TID 0000.0001) > /
(PID.TID 0000.0001) 
(PID.TID 0000.0001) CTRL_READPARMS: finished reading data.ctrl
(PID.TID 0000.0001) read-write ctrl files from current run directory
(PID.TID 0000.0001) COST_READPARMS: opening data.cost
(PID.TID 0000.0001)  OPEN_COPY_DATA_FILE: opening file data.cost
(PID.TID 0000.0001) // =======================================================
(PID.TID 0000.0001) // Parameter file "data.cost"
(PID.TID 0000.0001) // =======================================================
(PID.TID 0000.0001) >#
(PID.TID 0000.0001) >#
(PID.TID 0000.0001) ># ******************
(PID.TID 0000.0001) ># cost function
(PID.TID 0000.0001) ># ******************
(PID.TID 0000.0001) > &COST_NML
(PID.TID 0000.0001) >  mult_atl = 1.,
(PID.TID 0000.0001) > /
(PID.TID 0000.0001) 
(PID.TID 0000.0001) COST_READPARMS: finished reading data.cost
(PID.TID 0000.0001) // =======================================================
(PID.TID 0000.0001) // cost configuration  >>> START <<<
(PID.TID 0000.0001) // =======================================================
(PID.TID 0000.0001) lastinterval =   /* cost interval over which to average ( s ). */
(PID.TID 0000.0001)                 2.592000000000000E+06
(PID.TID 0000.0001)     ;
(PID.TID 0000.0001) cost_mask_file = /* file name of cost mask file */
(PID.TID 0000.0001)               ''
(PID.TID 0000.0001)     ;
(PID.TID 0000.0001) // =======================================================
(PID.TID 0000.0001) // cost configuration  >>> END <<<
(PID.TID 0000.0001) // =======================================================
(PID.TID 0000.0001) 
(PID.TID 0000.0001) GRDCHK_READPARMS: opening data.grdchk
(PID.TID 0000.0001)  OPEN_COPY_DATA_FILE: opening file data.grdchk
(PID.TID 0000.0001) // =======================================================
(PID.TID 0000.0001) // Parameter file "data.grdchk"
(PID.TID 0000.0001) // =======================================================
(PID.TID 0000.0001) >
(PID.TID 0000.0001) ># *******************
(PID.TID 0000.0001) ># ECCO gradient check
(PID.TID 0000.0001) ># *******************
(PID.TID 0000.0001) > &GRDCHK_NML
(PID.TID 0000.0001) > grdchk_eps       = 1.d-5,
(PID.TID 0000.0001) ># nbeg             = 4,
(PID.TID 0000.0001) > iGloPos          = 4,
(PID.TID 0000.0001) > jGloPos          = 8,
(PID.TID 0000.0001) > kGloPos          = 1,
(PID.TID 0000.0001) > nstep            = 1,
(PID.TID 0000.0001) > nend             = 4,
(PID.TID 0000.0001) > grdchkvarname    = "xx_theta",
(PID.TID 0000.0001) > /
(PID.TID 0000.0001) 
(PID.TID 0000.0001) GRDCHK_READPARMS: finished reading data.grdchk
(PID.TID 0000.0001)  DIAGNOSTICS_READPARMS: opening data.diagnostics
(PID.TID 0000.0001)  OPEN_COPY_DATA_FILE: opening file data.diagnostics
(PID.TID 0000.0001) // =======================================================
(PID.TID 0000.0001) // Parameter file "data.diagnostics"
(PID.TID 0000.0001) // =======================================================
(PID.TID 0000.0001) ># Diagnostic Package Choices
(PID.TID 0000.0001) >#--------------------
(PID.TID 0000.0001) >#  dumpAtLast (logical): always write output at the end of simulation (default=F)
(PID.TID 0000.0001) >#  diag_mnc   (logical): write to NetCDF files (default=useMNC)
(PID.TID 0000.0001) >#--for each output-stream:
(PID.TID 0000.0001) >#  fileName(n) : prefix of the output file name (max 80c long) for outp.stream n
(PID.TID 0000.0001) >#  frequency(n):< 0 : write snap-shot output every |frequency| seconds
(PID.TID 0000.0001) >#               > 0 : write time-average output every frequency seconds
(PID.TID 0000.0001) >#  timePhase(n)     : write at time = timePhase + multiple of |frequency|
(PID.TID 0000.0001) >#    averagingFreq  : frequency (in s) for periodic averaging interval
(PID.TID 0000.0001) >#    averagingPhase : phase     (in s) for periodic averaging interval
(PID.TID 0000.0001) >#    repeatCycle    : number of averaging intervals in 1 cycle
(PID.TID 0000.0001) >#  levels(:,n) : list of levels to write to file (Notes: declared as REAL)
(PID.TID 0000.0001) >#                when this entry is missing, select all common levels of this list
(PID.TID 0000.0001) >#  fields(:,n) : list of selected diagnostics fields (8.c) in outp.stream n
(PID.TID 0000.0001) >#                (see "available_diagnostics.log" file for the full list of diags)
(PID.TID 0000.0001) >#  missing_value(n) : missing value for real-type fields in output file "n"
(PID.TID 0000.0001) >#  fileFlags(n)     : specific code (8c string) for output file "n"
(PID.TID 0000.0001) >#--------------------
(PID.TID 0000.0001) > &DIAGNOSTICS_LIST
(PID.TID 0000.0001) >  fields(1:3,1)  = 'ETAN    ','TRELAX  ','MXLDEPTH',
(PID.TID 0000.0001) >  fileName(1) = 'surfDiag',
(PID.TID 0000.0001) >  frequency(1) = 432000.,
(PID.TID 0000.0001) >
(PID.TID 0000.0001) >  fields(1:12,2)  = 'THETA   ','PHIHYD  ',
(PID.TID 0000.0001) >                   'UVEL    ','VVEL    ','WVEL    ',
(PID.TID 0000.0001) >                   'THETASQ', 'UVELSQ', 'VVELSQ', 'WVELSQ',
(PID.TID 0000.0001) >                   'PhiVEL', 'PsiVEL', 'momKE'
(PID.TID 0000.0001) ># did not specify levels => all levels are selected
(PID.TID 0000.0001) >   fileName(2) = 'dynDiag',
(PID.TID 0000.0001) >  frequency(2) = 432000.,
(PID.TID 0000.0001) > /
(PID.TID 0000.0001) >
(PID.TID 0000.0001) >#---------------------------------------
(PID.TID 0000.0001) >#- Eddy-permitting run, diagnose vorticity (not computed when using uniform Ah)
(PID.TID 0000.0001) ># fields(1:2,3) = 'momVort3', 'momHDiv ',
(PID.TID 0000.0001) ># frequency(3) = 86400.,
(PID.TID 0000.0001) ># filename(3) = 'state_vort',
(PID.TID 0000.0001) ># &
(PID.TID 0000.0001) >
(PID.TID 0000.0001) ># GM diagnostics
(PID.TID 0000.0001) >#- Note: comment out this diagnostics list below if useGMRedi=.FALSE.
(PID.TID 0000.0001) >#        or you will get warnings messages in STDERR
(PID.TID 0000.0001) >  fields(1:2,3) = 'GM_PsiX ', 'GM_PsiY ',
(PID.TID 0000.0001) >  frequency(3) = 432000.,
(PID.TID 0000.0001) >  filename(3) = 'GM_diags',
(PID.TID 0000.0001) >
(PID.TID 0000.0001) >
(PID.TID 0000.0001) ># Parameter for Diagnostics of per level statistics:
(PID.TID 0000.0001) >#--------------------
(PID.TID 0000.0001) >#  diagSt_mnc (logical): write stat-diags to NetCDF files (default=diag_mnc)
(PID.TID 0000.0001) >#  diagSt_regMaskFile : file containing the region-mask to read-in
(PID.TID 0000.0001) >#  nSetRegMskFile   : number of region-mask sets within the region-mask file
(PID.TID 0000.0001) >#  set_regMask(i)   : region-mask set-index that identifies the region "i"
(PID.TID 0000.0001) >#  val_regMask(i)   : region "i" identifier value in the region mask
(PID.TID 0000.0001) >#--for each output-stream:
(PID.TID 0000.0001) >#  stat_fName(n) : prefix of the output file name (max 80c long) for outp.stream n
(PID.TID 0000.0001) >#  stat_freq(n):< 0 : write snap-shot output every |stat_freq| seconds
(PID.TID 0000.0001) >#               > 0 : write time-average output every stat_freq seconds
(PID.TID 0000.0001) >#  stat_phase(n)    : write at time = stat_phase + multiple of |stat_freq|
(PID.TID 0000.0001) >#  stat_region(:,n) : list of "regions" (default: 1 region only=global)
(PID.TID 0000.0001) >#  stat_fields(:,n) : list of selected diagnostics fields (8.c) in outp.stream n
(PID.TID 0000.0001) >#                (see "available_diagnostics.log" file for the full list of diags)
(PID.TID 0000.0001) >#--------------------
(PID.TID 0000.0001) > &DIAG_STATIS_PARMS
(PID.TID 0000.0001) >  stat_fields(1:2,1) = 'THETA   ','TRELAX  ',
(PID.TID 0000.0001) >  stat_fName(1) = 'dynStDiag',
(PID.TID 0000.0001) >  stat_freq(1) = 432000.,
(PID.TID 0000.0001) > /
(PID.TID 0000.0001) 
(PID.TID 0000.0001) S/R DIAGNOSTICS_READPARMS, read namelist "diagnostics_list": start
(PID.TID 0000.0001) S/R DIAGNOSTICS_READPARMS, read namelist "diagnostics_list": OK
(PID.TID 0000.0001) S/R DIAGNOSTICS_READPARMS, read namelist "DIAG_STATIS_PARMS": start
(PID.TID 0000.0001) S/R DIAGNOSTICS_READPARMS, read namelist "DIAG_STATIS_PARMS": OK
(PID.TID 0000.0001) -----------------------------------------------------
(PID.TID 0000.0001)  DIAGNOSTICS_READPARMS: global parameter summary:
(PID.TID 0000.0001)  diag_dBugLevel = /* level of printed debug messages */
(PID.TID 0000.0001)                       0
(PID.TID 0000.0001)     ;
(PID.TID 0000.0001)  dumpAtLast = /* always write time-ave diags at the end */
(PID.TID 0000.0001)                   F
(PID.TID 0000.0001)     ;
(PID.TID 0000.0001)  diag_mnc =   /* write NetCDF output files */
(PID.TID 0000.0001)                   F
(PID.TID 0000.0001)     ;
(PID.TID 0000.0001)  useMissingValue = /* put MissingValue where mask = 0 */
(PID.TID 0000.0001)                   F
(PID.TID 0000.0001)     ;
(PID.TID 0000.0001)  diagCG_maxIters = /* max number of iters in diag_cg2d */
(PID.TID 0000.0001)                     100
(PID.TID 0000.0001)     ;
(PID.TID 0000.0001)  diagCG_resTarget = /* residual target for diag_cg2d */
(PID.TID 0000.0001)                 1.000000000000000E-05
(PID.TID 0000.0001)     ;
(PID.TID 0000.0001)  diagCG_pcOffDFac = /* preconditioner off-diagonal factor */
(PID.TID 0000.0001)                 9.611687812379854E-01
(PID.TID 0000.0001)     ;
(PID.TID 0000.0001) -----------------------------------------------------
(PID.TID 0000.0001)  DIAGNOSTICS_READPARMS: active diagnostics summary:
(PID.TID 0000.0001) -----------------------------------------------------
(PID.TID 0000.0001) Creating Output Stream: surfDiag
(PID.TID 0000.0001) Output Frequency:     432000.000000 ; Phase:           0.000000
(PID.TID 0000.0001)  Averaging Freq.:     432000.000000 , Phase:           0.000000 , Cycle:   1
(PID.TID 0000.0001)  missing value: -9.990000000000E+02
(PID.TID 0000.0001)  Levels:    will be set later
(PID.TID 0000.0001)  Fields:    ETAN     TRELAX   MXLDEPTH
(PID.TID 0000.0001) Creating Output Stream: dynDiag
(PID.TID 0000.0001) Output Frequency:     432000.000000 ; Phase:           0.000000
(PID.TID 0000.0001)  Averaging Freq.:     432000.000000 , Phase:           0.000000 , Cycle:   1
(PID.TID 0000.0001)  missing value: -9.990000000000E+02
(PID.TID 0000.0001)  Levels:    will be set later
(PID.TID 0000.0001)  Fields:    THETA    PHIHYD   UVEL     VVEL     WVEL     THETASQ  UVELSQ   VVELSQ   WVELSQ   PhiVEL
(PID.TID 0000.0001)  Fields:    PsiVEL   momKE
(PID.TID 0000.0001) -----------------------------------------------------
(PID.TID 0000.0001)  DIAGNOSTICS_READPARMS: statistics diags. summary:
(PID.TID 0000.0001) Creating Stats. Output Stream: dynStDiag
(PID.TID 0000.0001) Output Frequency:     432000.000000 ; Phase:           0.000000
(PID.TID 0000.0001)  Regions:   0
(PID.TID 0000.0001)  Fields:    THETA    TRELAX
(PID.TID 0000.0001) -----------------------------------------------------
(PID.TID 0000.0001) 
(PID.TID 0000.0001) SET_PARMS: done
(PID.TID 0000.0001) Enter INI_VERTICAL_GRID: setInterFDr=    T ; setCenterDr=    F
(PID.TID 0000.0001) %MON XC_max                       =   6.0500000000000E+01
(PID.TID 0000.0001) %MON XC_min                       =  -5.0000000000000E-01
(PID.TID 0000.0001) %MON XC_mean                      =   3.0000000000000E+01
(PID.TID 0000.0001) %MON XC_sd                        =   1.7895530168173E+01
(PID.TID 0000.0001) %MON XG_max                       =   6.0000000000000E+01
(PID.TID 0000.0001) %MON XG_min                       =  -1.0000000000000E+00
(PID.TID 0000.0001) %MON XG_mean                      =   2.9500000000000E+01
(PID.TID 0000.0001) %MON XG_sd                        =   1.7895530168173E+01
(PID.TID 0000.0001) %MON DXC_max                      =   1.0763620848898E+05
(PID.TID 0000.0001) %MON DXC_min                      =   2.7836616228646E+04
(PID.TID 0000.0001) %MON DXC_mean                     =   7.4835486957243E+04
(PID.TID 0000.0001) %MON DXC_sd                       =   2.4080389995677E+04
(PID.TID 0000.0001) %MON DXF_max                      =   1.0763620848898E+05
(PID.TID 0000.0001) %MON DXF_min                      =   2.7836616228646E+04
(PID.TID 0000.0001) %MON DXF_mean                     =   7.4835486957243E+04
(PID.TID 0000.0001) %MON DXF_sd                       =   2.4080389995677E+04
(PID.TID 0000.0001) %MON DXG_max                      =   1.0787502725165E+05
(PID.TID 0000.0001) %MON DXG_min                      =   2.8774847489886E+04
(PID.TID 0000.0001) %MON DXG_mean                     =   7.5485691984677E+04
(PID.TID 0000.0001) %MON DXG_sd                       =   2.3877575243700E+04
(PID.TID 0000.0001) %MON DXV_max                      =   1.0787502725165E+05
(PID.TID 0000.0001) %MON DXV_min                      =   2.8774847489886E+04
(PID.TID 0000.0001) %MON DXV_mean                     =   7.5485691984677E+04
(PID.TID 0000.0001) %MON DXV_sd                       =   2.3877575243700E+04
(PID.TID 0000.0001) %MON YC_max                       =   7.5500000000000E+01
(PID.TID 0000.0001) %MON YC_min                       =   1.4500000000000E+01
(PID.TID 0000.0001) %MON YC_mean                      =   4.5000000000000E+01
(PID.TID 0000.0001) %MON YC_sd                        =   1.7895530168173E+01
(PID.TID 0000.0001) %MON YG_max                       =   7.5000000000000E+01
(PID.TID 0000.0001) %MON YG_min                       =   1.4000000000000E+01
(PID.TID 0000.0001) %MON YG_mean                      =   4.4500000000000E+01
(PID.TID 0000.0001) %MON YG_sd                        =   1.7895530168173E+01
(PID.TID 0000.0001) %MON DYC_max                      =   1.1117747335204E+05
(PID.TID 0000.0001) %MON DYC_min                      =   1.1117747335204E+05
(PID.TID 0000.0001) %MON DYC_mean                     =   1.1117747335203E+05
(PID.TID 0000.0001) %MON DYC_sd                       =   6.1554601415992E-09
(PID.TID 0000.0001) %MON DYF_max                      =   1.1117747335204E+05
(PID.TID 0000.0001) %MON DYF_min                      =   1.1117747335204E+05
(PID.TID 0000.0001) %MON DYF_mean                     =   1.1117747335203E+05
(PID.TID 0000.0001) %MON DYF_sd                       =   6.1554601415992E-09
(PID.TID 0000.0001) %MON DYG_max                      =   1.1117747335204E+05
(PID.TID 0000.0001) %MON DYG_min                      =   1.1117747335204E+05
(PID.TID 0000.0001) %MON DYG_mean                     =   1.1117747335203E+05
(PID.TID 0000.0001) %MON DYG_sd                       =   6.1554601415992E-09
(PID.TID 0000.0001) %MON DYU_max                      =   1.1117747335204E+05
(PID.TID 0000.0001) %MON DYU_min                      =   1.1117747335204E+05
(PID.TID 0000.0001) %MON DYU_mean                     =   1.1117747335203E+05
(PID.TID 0000.0001) %MON DYU_sd                       =   6.1554601415992E-09
(PID.TID 0000.0001) %MON RA_max                       =   1.1966569815247E+10
(PID.TID 0000.0001) %MON RA_min                       =   3.0947653786454E+09
(PID.TID 0000.0001) %MON RA_mean                      =   8.3199147564140E+09
(PID.TID 0000.0001) %MON RA_sd                        =   2.6771629371464E+09
(PID.TID 0000.0001) %MON RAW_max                      =   1.1966569815247E+10
(PID.TID 0000.0001) %MON RAW_min                      =   3.0947653786454E+09
(PID.TID 0000.0001) %MON RAW_mean                     =   8.3199147564140E+09
(PID.TID 0000.0001) %MON RAW_sd                       =   2.6771629371464E+09
(PID.TID 0000.0001) %MON RAS_max                      =   1.1993120744872E+10
(PID.TID 0000.0001) %MON RAS_min                      =   3.1990742357492E+09
(PID.TID 0000.0001) %MON RAS_mean                     =   8.3922019910189E+09
(PID.TID 0000.0001) %MON RAS_sd                       =   2.6546147916555E+09
(PID.TID 0000.0001) %MON RAZ_max                      =   1.1993120744872E+10
(PID.TID 0000.0001) %MON RAZ_min                      =   3.1990742357492E+09
(PID.TID 0000.0001) %MON RAZ_mean                     =   8.3922019910189E+09
(PID.TID 0000.0001) %MON RAZ_sd                       =   2.6546147916555E+09
(PID.TID 0000.0001) %MON AngleCS_max                  =   1.0000000000000E+00
(PID.TID 0000.0001) %MON AngleCS_min                  =   1.0000000000000E+00
(PID.TID 0000.0001) %MON AngleCS_mean                 =   1.0000000000000E+00
(PID.TID 0000.0001) %MON AngleCS_sd                   =   0.0000000000000E+00
(PID.TID 0000.0001) %MON AngleSN_max                  =   0.0000000000000E+00
(PID.TID 0000.0001) %MON AngleSN_min                  =   0.0000000000000E+00
(PID.TID 0000.0001) %MON AngleSN_mean                 =   0.0000000000000E+00
(PID.TID 0000.0001) %MON AngleSN_sd                   =   0.0000000000000E+00
(PID.TID 0000.0001) GAD_INIT_FIXED: GAD_OlMinSize=  2  0  1
(PID.TID 0000.0001) 
(PID.TID 0000.0001) // ===================================
(PID.TID 0000.0001) // GAD parameters :
(PID.TID 0000.0001) // ===================================
(PID.TID 0000.0001) tempAdvScheme =   /* Temp. Horiz.Advection scheme selector */
(PID.TID 0000.0001)                      33
(PID.TID 0000.0001)     ;
(PID.TID 0000.0001) tempVertAdvScheme =   /* Temp. Vert. Advection scheme selector */
(PID.TID 0000.0001)                      33
(PID.TID 0000.0001)     ;
(PID.TID 0000.0001) tempMultiDimAdvec =   /* use Muti-Dim Advec method for Temp */
(PID.TID 0000.0001)                   T
(PID.TID 0000.0001)     ;
(PID.TID 0000.0001) tempSOM_Advection = /* use 2nd Order Moment Advection for Temp */
(PID.TID 0000.0001)                   F
(PID.TID 0000.0001)     ;
(PID.TID 0000.0001) AdamsBashforthGt = /* apply Adams-Bashforth extrapolation on Gt */
(PID.TID 0000.0001)                   F
(PID.TID 0000.0001)     ;
(PID.TID 0000.0001) AdamsBashforth_T = /* apply Adams-Bashforth extrapolation on Temp */
(PID.TID 0000.0001)                   F
(PID.TID 0000.0001)     ;
(PID.TID 0000.0001) saltAdvScheme =   /* Salt. Horiz.advection scheme selector */
(PID.TID 0000.0001)                      33
(PID.TID 0000.0001)     ;
(PID.TID 0000.0001) saltVertAdvScheme =   /* Salt. Vert. Advection scheme selector */
(PID.TID 0000.0001)                      33
(PID.TID 0000.0001)     ;
(PID.TID 0000.0001) saltMultiDimAdvec =   /* use Muti-Dim Advec method for Salt */
(PID.TID 0000.0001)                   T
(PID.TID 0000.0001)     ;
(PID.TID 0000.0001) saltSOM_Advection = /* use 2nd Order Moment Advection for Salt */
(PID.TID 0000.0001)                   F
(PID.TID 0000.0001)     ;
(PID.TID 0000.0001) AdamsBashforthGs = /* apply Adams-Bashforth extrapolation on Gs */
(PID.TID 0000.0001)                   F
(PID.TID 0000.0001)     ;
(PID.TID 0000.0001) AdamsBashforth_S = /* apply Adams-Bashforth extrapolation on Salt */
(PID.TID 0000.0001)                   F
(PID.TID 0000.0001)     ;
(PID.TID 0000.0001) // ===================================
(PID.TID 0000.0001) CTRL_INIT_FIXED: ivar=   2 = number of CTRL variables defined
(PID.TID 0000.0001) 
(PID.TID 0000.0001) ctrl-wet 1:    nvarlength =       164576
(PID.TID 0000.0001) ctrl-wet 2: surface wet C =         2892
(PID.TID 0000.0001) ctrl-wet 3: surface wet W =         2832
(PID.TID 0000.0001) ctrl-wet 4: surface wet S =         2832
(PID.TID 0000.0001) ctrl-wet 5: 3D wet points =        82288
(PID.TID 0000.0001) ctrl-wet 6: no recs for ivar =     1           1
(PID.TID 0000.0001) ctrl-wet 6: no recs for ivar =     2           1
(PID.TID 0000.0001) ctrl-wet 6: no recs for ivar =     3           0
(PID.TID 0000.0001) ctrl-wet 6: no recs for ivar =     4           0
(PID.TID 0000.0001) ctrl-wet 6: no recs for ivar =     5           0
(PID.TID 0000.0001) ctrl-wet 6: no recs for ivar =     6           0
(PID.TID 0000.0001) ctrl-wet 6: no recs for ivar =     7           0
(PID.TID 0000.0001) ctrl-wet -------------------------------------------------
(PID.TID 0000.0001) ctrl-wet 13: global nvarlength for Nr =   31      164576
(PID.TID 0000.0001) ctrl-wet -------------------------------------------------
(PID.TID 0000.0001) ctrl-wet 14: global nWet C/S/W k=    1        2892        2832        2832
(PID.TID 0000.0001) ctrl-wet 14: global nWet C/S/W k=    2        2892        2832        2832
(PID.TID 0000.0001) ctrl-wet 14: global nWet C/S/W k=    3        2892        2832        2832
(PID.TID 0000.0001) ctrl-wet 14: global nWet C/S/W k=    4        2892        2832        2832
(PID.TID 0000.0001) ctrl-wet 14: global nWet C/S/W k=    5        2892        2832        2832
(PID.TID 0000.0001) ctrl-wet 14: global nWet C/S/W k=    6        2892        2832        2832
(PID.TID 0000.0001) ctrl-wet 14: global nWet C/S/W k=    7        2892        2832        2832
(PID.TID 0000.0001) ctrl-wet 14: global nWet C/S/W k=    8        2676        2618        2618
(PID.TID 0000.0001) ctrl-wet 14: global nWet C/S/W k=    9        2660        2602        2602
(PID.TID 0000.0001) ctrl-wet 14: global nWet C/S/W k=   10        2644        2586        2586
(PID.TID 0000.0001) ctrl-wet 14: global nWet C/S/W k=   11        2632        2574        2574
(PID.TID 0000.0001) ctrl-wet 14: global nWet C/S/W k=   12        2632        2574        2574
(PID.TID 0000.0001) ctrl-wet 14: global nWet C/S/W k=   13        2624        2566        2566
(PID.TID 0000.0001) ctrl-wet 14: global nWet C/S/W k=   14        2608        2550        2550
(PID.TID 0000.0001) ctrl-wet 14: global nWet C/S/W k=   15        2608        2550        2550
(PID.TID 0000.0001) ctrl-wet 14: global nWet C/S/W k=   16        2600        2542        2542
(PID.TID 0000.0001) ctrl-wet 14: global nWet C/S/W k=   17        2600        2542        2542
(PID.TID 0000.0001) ctrl-wet 14: global nWet C/S/W k=   18        2600        2542        2542
(PID.TID 0000.0001) ctrl-wet 14: global nWet C/S/W k=   19        2584        2526        2526
(PID.TID 0000.0001) ctrl-wet 14: global nWet C/S/W k=   20        2584        2526        2526
(PID.TID 0000.0001) ctrl-wet 14: global nWet C/S/W k=   21        2584        2526        2526
(PID.TID 0000.0001) ctrl-wet 14: global nWet C/S/W k=   22        2584        2526        2526
(PID.TID 0000.0001) ctrl-wet 14: global nWet C/S/W k=   23        2576        2518        2518
(PID.TID 0000.0001) ctrl-wet 14: global nWet C/S/W k=   24        2576        2518        2518
(PID.TID 0000.0001) ctrl-wet 14: global nWet C/S/W k=   25        2568        2510        2510
(PID.TID 0000.0001) ctrl-wet 14: global nWet C/S/W k=   26        2536        2480        2480
(PID.TID 0000.0001) ctrl-wet 14: global nWet C/S/W k=   27        2528        2472        2472
(PID.TID 0000.0001) ctrl-wet 14: global nWet C/S/W k=   28        2528        2472        2472
(PID.TID 0000.0001) ctrl-wet 14: global nWet C/S/W k=   29        2512        2456        2456
(PID.TID 0000.0001) ctrl-wet 14: global nWet C/S/W k=   30        2504        2448        2448
(PID.TID 0000.0001) ctrl-wet 14: global nWet C/S/W k=   31        2496        2440        2440
(PID.TID 0000.0001) ctrl-wet -------------------------------------------------
(PID.TID 0000.0001) ctrl_init_wet: no. of control variables:            2
(PID.TID 0000.0001) ctrl_init_wet: control vector length:          164576
(PID.TID 0000.0001) 
(PID.TID 0000.0001) // =======================================================
(PID.TID 0000.0001) // control vector configuration  >>> START <<<
(PID.TID 0000.0001) // =======================================================
(PID.TID 0000.0001) 
(PID.TID 0000.0001)  Total number of ocean points per tile:
(PID.TID 0000.0001)  --------------------------------------
(PID.TID 0000.0001)  sNx*sNy*Nr =   119164
(PID.TID 0000.0001) 
(PID.TID 0000.0001)  Number of ocean points per tile:
(PID.TID 0000.0001)  --------------------------------
(PID.TID 0000.0001)  bi,bj,#(c/s/w): 001 001   82288   80488   80488
(PID.TID 0000.0001) 
(PID.TID 0000.0001)  -> 3d control, genarr3d no.  1 is in use
(PID.TID 0000.0001)       file       = xx_theta
(PID.TID 0000.0001)       ncvartype  = Arr3D
(PID.TID 0000.0001)       index      =     1  (use this for pkg/grdchk)
(PID.TID 0000.0001)       ncvarindex =     1
(PID.TID 0000.0001)       weight     = ones_64b.bin
(PID.TID 0000.0001) 
(PID.TID 0000.0001)  -> 3d control, genarr3d no.  2 is in use
(PID.TID 0000.0001)       file       = xx_salt
(PID.TID 0000.0001)       ncvartype  = Arr3D
(PID.TID 0000.0001)       index      =     2  (use this for pkg/grdchk)
(PID.TID 0000.0001)       ncvarindex =     2
(PID.TID 0000.0001)       weight     = ones_64b.bin
(PID.TID 0000.0001) 
(PID.TID 0000.0001) // =======================================================
(PID.TID 0000.0001) // control vector configuration  >>> END <<<
(PID.TID 0000.0001) // =======================================================
(PID.TID 0000.0001) 
(PID.TID 0000.0001) ------------------------------------------------------------
(PID.TID 0000.0001) DIAGNOSTICS_SET_LEVELS: done
(PID.TID 0000.0001)  Total Nb of available Diagnostics: ndiagt=   230
(PID.TID 0000.0001) SETDIAG: Allocate  1 x  1 Levels for Diagnostic #    23 ETAN
(PID.TID 0000.0001) SETDIAG: Allocate  1 x  1 Levels for Diagnostic #    89 TRELAX
(PID.TID 0000.0001) SETDIAG: Allocate  1 x  1 Levels for Diagnostic #    76 MXLDEPTH
(PID.TID 0000.0001) SETDIAG: Allocate 31 x  1 Levels for Diagnostic #    26 THETA
(PID.TID 0000.0001) SETDIAG: Allocate 31 x  1 Levels for Diagnostic #    71 PHIHYD
(PID.TID 0000.0001) SETDIAG: Allocate 31 x  1 Levels for Diagnostic #    30 UVEL
(PID.TID 0000.0001) SETDIAG: Allocate 31 x  1 Levels for Diagnostic #    31 VVEL
(PID.TID 0000.0001) SETDIAG: Allocate 31 x  1 Levels for Diagnostic #    32 WVEL
(PID.TID 0000.0001) SETDIAG: Allocate 31 x  1 Levels for Diagnostic #    33 THETASQ
(PID.TID 0000.0001) SETDIAG: Allocate 31 x  1 Levels for Diagnostic #    36 UVELSQ
(PID.TID 0000.0001) SETDIAG: Allocate 31 x  1 Levels for Diagnostic #    37 VVELSQ
(PID.TID 0000.0001) SETDIAG: Allocate 31 x  1 Levels for Diagnostic #    38 WVELSQ
(PID.TID 0000.0001) SETDIAG: Diag #    48 PhiVEL   processed from Diag #    45 UVELMASS
(PID.TID 0000.0001) SETDIAG: Allocate 31 x  1 Levels for Diagnostic #    45 UVELMASS
(PID.TID 0000.0001) SETDIAG: Allocate 31 x  1 Levels for Mate Diag. #    46 VVELMASS
(PID.TID 0000.0001) SETDIAG: Diag #    49 PsiVEL   processed from Diag #    48 PhiVEL
(PID.TID 0000.0001) - NOTE - SETDIAG:  Diagnostic  #    48 PhiVEL   is already set
(PID.TID 0000.0001) SETDIAG: Allocate 31 x  1 Levels for Diagnostic #   168 momKE
(PID.TID 0000.0001)   space allocated for all diagnostics:     375 levels
(PID.TID 0000.0001)   set mate pointer for diag #    30  UVEL     , Parms: UUR     MR , mate:    31
(PID.TID 0000.0001)   set mate pointer for diag #    31  VVEL     , Parms: VVR     MR , mate:    30
(PID.TID 0000.0001)   set mate pointer for diag #    36  UVELSQ   , Parms: UURP    MR , mate:    37
(PID.TID 0000.0001)   set mate pointer for diag #    37  VVELSQ   , Parms: VVRP    MR , mate:    36
(PID.TID 0000.0001)   set mate pointer for diag #    45  UVELMASS , Parms: UUr     MR , mate:    46
(PID.TID 0000.0001)   set mate pointer for diag #    46  VVELMASS , Parms: VVr     MR , mate:    45
(PID.TID 0000.0001) DIAGNOSTICS_SET_POINTERS: Set levels for Outp.Stream: surfDiag
(PID.TID 0000.0001)  Levels:       1.
(PID.TID 0000.0001) DIAGNOSTICS_SET_POINTERS: Set levels for Outp.Stream: dynDiag
(PID.TID 0000.0001)  Levels:       1.   2.   3.   4.   5.   6.   7.   8.   9.  10.  11.  12.  13.  14.  15.  16.  17.  18.  19.  20.
(PID.TID 0000.0001)  Levels:      21.  22.  23.  24.  25.  26.  27.  28.  29.  30.  31.
(PID.TID 0000.0001) DIAGNOSTICS_SET_POINTERS: done, use     375 levels (numDiags =     620 )
(PID.TID 0000.0001) ------------------------------------------------------------
(PID.TID 0000.0001) DIAGSTATS_SET_REGIONS: define no region
(PID.TID 0000.0001) ------------------------------------------------------------
(PID.TID 0000.0001) SETDIAG: Allocate 31 Levels for Stats-Diag #    26 THETA
(PID.TID 0000.0001) SETDIAG: Allocate  1 Levels for Stats-Diag #    89 TRELAX
(PID.TID 0000.0001)   space allocated for all stats-diags:      32 levels
(PID.TID 0000.0001) DIAGSTATS_SET_POINTERS: done, use      32 levels (diagSt_size=     310 )
(PID.TID 0000.0001) ------------------------------------------------------------
(PID.TID 0000.0001) %MON fCori_max                    =   1.4119704352640E-04
(PID.TID 0000.0001) %MON fCori_min                    =   3.6516038314991E-05
(PID.TID 0000.0001) %MON fCori_mean                   =   9.8169098090287E-05
(PID.TID 0000.0001) %MON fCori_sd                     =   3.1588625445689E-05
(PID.TID 0000.0001) %MON fCoriG_max                   =   1.4087300867102E-04
(PID.TID 0000.0001) %MON fCoriG_min                   =   3.5282486883545E-05
(PID.TID 0000.0001) %MON fCoriG_mean                  =   9.7308683992512E-05
(PID.TID 0000.0001) %MON fCoriG_sd                    =   3.1852455422807E-05
(PID.TID 0000.0001) %MON fCoriCos_max                 =   1.4119704352640E-04
(PID.TID 0000.0001) %MON fCoriCos_min                 =   3.6516038314991E-05
(PID.TID 0000.0001) %MON fCoriCos_mean                =   9.8169098090291E-05
(PID.TID 0000.0001) %MON fCoriCos_sd                  =   3.1588625445688E-05
(PID.TID 0000.0001) INI_CG2D: CG2D normalisation factor =  8.6024439359483882E-05
(PID.TID 0000.0001) 
(PID.TID 0000.0001) // =======================================================
(PID.TID 0000.0001) // Model configuration
(PID.TID 0000.0001) // =======================================================
(PID.TID 0000.0001) //
(PID.TID 0000.0001) // "Physical" paramters ( PARM01 in namelist )
(PID.TID 0000.0001) //
(PID.TID 0000.0001) buoyancyRelation = /* Type of relation to get Buoyancy */
(PID.TID 0000.0001)               'OCEANIC'
(PID.TID 0000.0001)     ;
(PID.TID 0000.0001) fluidIsAir   =  /* fluid major constituent is Air */
(PID.TID 0000.0001)                   F
(PID.TID 0000.0001)     ;
(PID.TID 0000.0001) fluidIsWater =  /* fluid major constituent is Water */
(PID.TID 0000.0001)                   T
(PID.TID 0000.0001)     ;
(PID.TID 0000.0001) usingPCoords =  /* use p (or p*) vertical coordinate */
(PID.TID 0000.0001)                   F
(PID.TID 0000.0001)     ;
(PID.TID 0000.0001) usingZCoords =  /* use z (or z*) vertical coordinate */
(PID.TID 0000.0001)                   T
(PID.TID 0000.0001)     ;
(PID.TID 0000.0001) tRef =   /* Reference temperature profile ( oC or K ) */
(PID.TID 0000.0001)     3 @  2.300000000000000E+01,             /* K =  1:  3 */
(PID.TID 0000.0001)                 2.200000000000000E+01,      /* K =  4 */
(PID.TID 0000.0001)                 2.100000000000000E+01,      /* K =  5 */
(PID.TID 0000.0001)                 2.000000000000000E+01,      /* K =  6 */
(PID.TID 0000.0001)                 1.900000000000000E+01,      /* K =  7 */
(PID.TID 0000.0001)                 1.700000000000000E+01,      /* K =  8 */
(PID.TID 0000.0001)                 1.600000000000000E+01,      /* K =  9 */
(PID.TID 0000.0001)                 1.500000000000000E+01,      /* K = 10 */
(PID.TID 0000.0001)                 1.400000000000000E+01,      /* K = 11 */
(PID.TID 0000.0001)                 1.200000000000000E+01,      /* K = 12 */
(PID.TID 0000.0001)                 1.100000000000000E+01,      /* K = 13 */
(PID.TID 0000.0001)                 1.000000000000000E+01,      /* K = 14 */
(PID.TID 0000.0001)                 9.000000000000000E+00,      /* K = 15 */
(PID.TID 0000.0001)                 8.000000000000000E+00,      /* K = 16 */
(PID.TID 0000.0001)                 7.000000000000000E+00,      /* K = 17 */
(PID.TID 0000.0001)     2 @  6.000000000000000E+00,             /* K = 18: 19 */
(PID.TID 0000.0001)     2 @  5.000000000000000E+00,             /* K = 20: 21 */
(PID.TID 0000.0001)     2 @  4.000000000000000E+00,             /* K = 22: 23 */
(PID.TID 0000.0001)     2 @  3.000000000000000E+00,             /* K = 24: 25 */
(PID.TID 0000.0001)     2 @  2.000000000000000E+00,             /* K = 26: 27 */
(PID.TID 0000.0001)     4 @  1.000000000000000E+00              /* K = 28: 31 */
(PID.TID 0000.0001)     ;
(PID.TID 0000.0001) sRef =   /* Reference salinity profile ( g/kg ) */
(PID.TID 0000.0001)    31 @  3.450000000000000E+01              /* K =  1: 31 */
(PID.TID 0000.0001)     ;
(PID.TID 0000.0001) rhoRef =   /* Density vertical profile from (Ref,sRef)( kg/m^3 ) */
(PID.TID 0000.0001)                 1.023577572005954E+03,      /* K =  1 */
(PID.TID 0000.0001)                 1.023623549263207E+03,      /* K =  2 */
(PID.TID 0000.0001)                 1.023675613276342E+03,      /* K =  3 */
(PID.TID 0000.0001)                 1.024018569869809E+03,      /* K =  4 */
(PID.TID 0000.0001)                 1.024361629697283E+03,      /* K =  5 */
(PID.TID 0000.0001)                 1.024705804444866E+03,      /* K =  6 */
(PID.TID 0000.0001)                 1.025052271508737E+03,      /* K =  7 */
(PID.TID 0000.0001)                 1.025645661964391E+03,      /* K =  8 */
(PID.TID 0000.0001)                 1.025992592411289E+03,      /* K =  9 */
(PID.TID 0000.0001)                 1.026346361931734E+03,      /* K = 10 */
(PID.TID 0000.0001)                 1.026709001157942E+03,      /* K = 11 */
(PID.TID 0000.0001)                 1.027282846338663E+03,      /* K = 12 */
(PID.TID 0000.0001)                 1.027661721921800E+03,      /* K = 13 */
(PID.TID 0000.0001)                 1.028057401528922E+03,      /* K = 14 */
(PID.TID 0000.0001)                 1.028473375249018E+03,      /* K = 15 */
(PID.TID 0000.0001)                 1.028913616650366E+03,      /* K = 16 */
(PID.TID 0000.0001)                 1.029382636686713E+03,      /* K = 17 */
(PID.TID 0000.0001)                 1.029885606645691E+03,      /* K = 18 */
(PID.TID 0000.0001)                 1.030290072892818E+03,      /* K = 19 */
(PID.TID 0000.0001)                 1.030888016683447E+03,      /* K = 20 */
(PID.TID 0000.0001)                 1.031407239662327E+03,      /* K = 21 */
(PID.TID 0000.0001)                 1.032129670505891E+03,      /* K = 22 */
(PID.TID 0000.0001)                 1.032795424975157E+03,      /* K = 23 */
(PID.TID 0000.0001)                 1.033679764328331E+03,      /* K = 24 */
(PID.TID 0000.0001)                 1.034532122852911E+03,      /* K = 25 */
(PID.TID 0000.0001)                 1.035625595542812E+03,      /* K = 26 */
(PID.TID 0000.0001)                 1.036714659799745E+03,      /* K = 27 */
(PID.TID 0000.0001)                 1.038076228708180E+03,      /* K = 28 */
(PID.TID 0000.0001)                 1.039464021739831E+03,      /* K = 29 */
(PID.TID 0000.0001)                 1.041023891510315E+03,      /* K = 30 */
(PID.TID 0000.0001)                 1.042775365441382E+03       /* K = 31 */
(PID.TID 0000.0001)     ;
(PID.TID 0000.0001) dBdrRef = /* Vertical grad. of reference buoyancy [(m/s/r)^2] */
(PID.TID 0000.0001)     3 @  0.000000000000000E+00,             /* K =  1:  3 */
(PID.TID 0000.0001)                 1.981426362570402E-04,      /* K =  4 */
(PID.TID 0000.0001)                 1.701092979003860E-04,      /* K =  5 */
(PID.TID 0000.0001)                 1.458715085243869E-04,      /* K =  6 */
(PID.TID 0000.0001)                 1.249125719785483E-04,      /* K =  7 */
(PID.TID 0000.0001)                 2.099649801856568E-04,      /* K =  8 */
(PID.TID 0000.0001)                 8.792303423357168E-05,      /* K =  9 */
(PID.TID 0000.0001)                 7.484001221613001E-05,      /* K = 10 */
(PID.TID 0000.0001)                 6.358666111189054E-05,      /* K = 11 */
(PID.TID 0000.0001)                 1.054006897248987E-04,      /* K = 12 */
(PID.TID 0000.0001)                 4.344210601996791E-05,      /* K = 13 */
(PID.TID 0000.0001)                 3.656879805711143E-05,      /* K = 14 */
(PID.TID 0000.0001)                 3.069973543024333E-05,      /* K = 15 */
(PID.TID 0000.0001)                 2.570018494684971E-05,      /* K = 16 */
(PID.TID 0000.0001)                 2.145254771255852E-05,      /* K = 17 */
(PID.TID 0000.0001)                 1.785089392823324E-05,      /* K = 18 */
(PID.TID 0000.0001)                 0.000000000000000E+00,      /* K = 19 */
(PID.TID 0000.0001)                 1.329610664296088E-05,      /* K = 20 */
(PID.TID 0000.0001)                 0.000000000000000E+00,      /* K = 21 */
(PID.TID 0000.0001)                 9.975032051112675E-06,      /* K = 22 */
(PID.TID 0000.0001)                 0.000000000000000E+00,      /* K = 23 */
(PID.TID 0000.0001)                 7.572079405734685E-06,      /* K = 24 */
(PID.TID 0000.0001)                 0.000000000000000E+00,      /* K = 25 */
(PID.TID 0000.0001)                 5.849104430055921E-06,      /* K = 26 */
(PID.TID 0000.0001)                 0.000000000000000E+00,      /* K = 27 */
(PID.TID 0000.0001)                 4.627878774813460E-06,      /* K = 28 */
(PID.TID 0000.0001)     3 @  0.000000000000000E+00              /* K = 29: 31 */
(PID.TID 0000.0001)     ;
(PID.TID 0000.0001) useStrainTensionVisc= /* Use StrainTension Form of Viscous Operator */
(PID.TID 0000.0001)                   F
(PID.TID 0000.0001)     ;
(PID.TID 0000.0001) useVariableVisc = /* Use variable horizontal viscosity */
(PID.TID 0000.0001)                   T
(PID.TID 0000.0001)     ;
(PID.TID 0000.0001) useHarmonicVisc = /* Use harmonic horizontal viscosity */
(PID.TID 0000.0001)                   F
(PID.TID 0000.0001)     ;
(PID.TID 0000.0001) useBiharmonicVisc= /* Use biharmonic horiz.  viscosity */
(PID.TID 0000.0001)                   T
(PID.TID 0000.0001)     ;
(PID.TID 0000.0001) useSmag3D = /* Use isotropic 3-D Smagorinsky viscosity */
(PID.TID 0000.0001)                   F
(PID.TID 0000.0001)     ;
(PID.TID 0000.0001) viscAh  =   /* Lateral harmonic viscosity ( m^2/s ) */
(PID.TID 0000.0001)                 0.000000000000000E+00
(PID.TID 0000.0001)     ;
(PID.TID 0000.0001) viscAhMax = /* Maximum lateral harmonic viscosity ( m^2/s ) */
(PID.TID 0000.0001)                 1.000000000000000E+21
(PID.TID 0000.0001)     ;
(PID.TID 0000.0001) viscAhGrid = /* Grid dependent lateral harmonic viscosity ( non-dim. ) */
(PID.TID 0000.0001)                 0.000000000000000E+00
(PID.TID 0000.0001)     ;
(PID.TID 0000.0001) useFullLeith = /* Use Full Form of Leith Viscosity on/off flag*/
(PID.TID 0000.0001)                   F
(PID.TID 0000.0001)     ;
(PID.TID 0000.0001) useAreaViscLength = /* Use area for visc length instead of geom. mean*/
(PID.TID 0000.0001)                   T
(PID.TID 0000.0001)     ;
(PID.TID 0000.0001) viscC2leith = /* Leith harmonic visc. factor (on grad(vort),non-dim.) */
(PID.TID 0000.0001)                 0.000000000000000E+00
(PID.TID 0000.0001)     ;
(PID.TID 0000.0001) viscC2leithD = /* Leith harmonic viscosity factor (on grad(div),non-dim.)*/
(PID.TID 0000.0001)                 0.000000000000000E+00
(PID.TID 0000.0001)     ;
(PID.TID 0000.0001) viscC2LeithQG = /* QG Leith harmonic viscosity factor (non-dim.)*/
(PID.TID 0000.0001)                 0.000000000000000E+00
(PID.TID 0000.0001)     ;
(PID.TID 0000.0001) viscC2smag = /* Smagorinsky harmonic viscosity factor (non-dim.) */
(PID.TID 0000.0001)                 0.000000000000000E+00
(PID.TID 0000.0001)     ;
(PID.TID 0000.0001) viscA4  =   /* Lateral biharmonic viscosity ( m^4/s ) */
(PID.TID 0000.0001)                 0.000000000000000E+00
(PID.TID 0000.0001)     ;
(PID.TID 0000.0001) viscA4Max = /* Maximum biharmonic viscosity ( m^2/s ) */
(PID.TID 0000.0001)                 1.000000000000000E+21
(PID.TID 0000.0001)     ;
(PID.TID 0000.0001) viscA4Grid = /* Grid dependent biharmonic viscosity ( non-dim. ) */
(PID.TID 0000.0001)                 0.000000000000000E+00
(PID.TID 0000.0001)     ;
(PID.TID 0000.0001) viscC4leith = /* Leith biharm viscosity factor (on grad(vort), non-dim.)*/
(PID.TID 0000.0001)                 2.150000000000000E+00
(PID.TID 0000.0001)     ;
(PID.TID 0000.0001) viscC4leithD = /* Leith biharm viscosity factor (on grad(div), non-dim.) */
(PID.TID 0000.0001)                 2.150000000000000E+00
(PID.TID 0000.0001)     ;
(PID.TID 0000.0001) viscC4Smag = /* Smagorinsky biharm viscosity factor (non-dim) */
(PID.TID 0000.0001)                 0.000000000000000E+00
(PID.TID 0000.0001)     ;
(PID.TID 0000.0001) no_slip_sides =  /* Viscous BCs: No-slip sides */
(PID.TID 0000.0001)                   T
(PID.TID 0000.0001)     ;
(PID.TID 0000.0001) sideDragFactor = /* side-drag scaling factor (non-dim) */
(PID.TID 0000.0001)                 2.000000000000000E+00
(PID.TID 0000.0001)     ;
(PID.TID 0000.0001) viscArNr = /* vertical profile of vertical viscosity ( m^2/s )*/
(PID.TID 0000.0001)    31 @  0.000000000000000E+00              /* K =  1: 31 */
(PID.TID 0000.0001)     ;
(PID.TID 0000.0001) no_slip_bottom =  /* Viscous BCs: No-slip bottom */
(PID.TID 0000.0001)                   T
(PID.TID 0000.0001)     ;
(PID.TID 0000.0001) bottomVisc_pCell = /* Partial-cell in bottom Visc. BC */
(PID.TID 0000.0001)                   F
(PID.TID 0000.0001)     ;
(PID.TID 0000.0001) bottomDragLinear = /* linear bottom-drag coefficient ( m/s ) */
(PID.TID 0000.0001)                 0.000000000000000E+00
(PID.TID 0000.0001)     ;
(PID.TID 0000.0001) bottomDragQuadratic = /* quadratic bottom-drag coefficient (-) */
(PID.TID 0000.0001)                 2.100000000000000E-03
(PID.TID 0000.0001)     ;
(PID.TID 0000.0001) selectBotDragQuadr = /* select quadratic bottom drag options */
(PID.TID 0000.0001)                       0
(PID.TID 0000.0001)     ;
(PID.TID 0000.0001) diffKhT =   /* Laplacian diffusion of heat laterally ( m^2/s ) */
(PID.TID 0000.0001)                 0.000000000000000E+00
(PID.TID 0000.0001)     ;
(PID.TID 0000.0001) diffK4T =   /* Biharmonic diffusion of heat laterally ( m^4/s ) */
(PID.TID 0000.0001)                 0.000000000000000E+00
(PID.TID 0000.0001)     ;
(PID.TID 0000.0001) diffKhS =   /* Laplacian diffusion of salt laterally ( m^2/s ) */
(PID.TID 0000.0001)                 0.000000000000000E+00
(PID.TID 0000.0001)     ;
(PID.TID 0000.0001) diffK4S =   /* Biharmonic diffusion of salt laterally ( m^4/s ) */
(PID.TID 0000.0001)                 0.000000000000000E+00
(PID.TID 0000.0001)     ;
(PID.TID 0000.0001) diffKrNrT = /* vertical profile of vertical diffusion of Temp ( m^2/s )*/
(PID.TID 0000.0001)    31 @  0.000000000000000E+00              /* K =  1: 31 */
(PID.TID 0000.0001)     ;
(PID.TID 0000.0001) diffKrNrS = /* vertical profile of vertical diffusion of Salt ( m^2/s )*/
(PID.TID 0000.0001)    31 @  0.000000000000000E+00              /* K =  1: 31 */
(PID.TID 0000.0001)     ;
(PID.TID 0000.0001) diffKrBL79surf = /* Surface diffusion for Bryan and Lewis 79 ( m^2/s ) */
(PID.TID 0000.0001)                 0.000000000000000E+00
(PID.TID 0000.0001)     ;
(PID.TID 0000.0001) diffKrBL79deep = /* Deep diffusion for Bryan and Lewis 1979 ( m^2/s ) */
(PID.TID 0000.0001)                 0.000000000000000E+00
(PID.TID 0000.0001)     ;
(PID.TID 0000.0001) diffKrBL79scl = /* Depth scale for Bryan and Lewis 1979 ( m ) */
(PID.TID 0000.0001)                 2.000000000000000E+02
(PID.TID 0000.0001)     ;
(PID.TID 0000.0001) diffKrBL79Ho = /* Turning depth for Bryan and Lewis 1979 ( m ) */
(PID.TID 0000.0001)                -2.000000000000000E+03
(PID.TID 0000.0001)     ;
(PID.TID 0000.0001) ivdc_kappa = /* Implicit Vertical Diffusivity for Convection ( m^2/s) */
(PID.TID 0000.0001)                 0.000000000000000E+00
(PID.TID 0000.0001)     ;
(PID.TID 0000.0001) hMixCriteria=  /* Criteria for mixed-layer diagnostic */
(PID.TID 0000.0001)                -8.000000000000000E-01
(PID.TID 0000.0001)     ;
(PID.TID 0000.0001) dRhoSmall =  /* Parameter for mixed-layer diagnostic */
(PID.TID 0000.0001)                 1.000000000000000E-06
(PID.TID 0000.0001)     ;
(PID.TID 0000.0001) hMixSmooth=  /* Smoothing parameter for mixed-layer diagnostic */
(PID.TID 0000.0001)                 0.000000000000000E+00
(PID.TID 0000.0001)     ;
(PID.TID 0000.0001) eosType =  /* Type of Equation of State */
(PID.TID 0000.0001)               'JMD95Z'
(PID.TID 0000.0001)     ;
(PID.TID 0000.0001) eosRefP0 = /* Reference atmospheric pressure for EOS ( Pa ) */
(PID.TID 0000.0001)                 1.013250000000000E+05
(PID.TID 0000.0001)     ;
(PID.TID 0000.0001) selectP_inEOS_Zc = /* select pressure to use in EOS (0,1,2,3) */
(PID.TID 0000.0001)                       0
(PID.TID 0000.0001)     0= -g*rhoConst*z ; 1= pRef (from tRef,sRef); 2= Hyd P ; 3= Hyd+NH P
(PID.TID 0000.0001)     ;
(PID.TID 0000.0001) surf_pRef = /* Surface reference pressure ( Pa ) */
(PID.TID 0000.0001)                 1.013250000000000E+05
(PID.TID 0000.0001)     ;
(PID.TID 0000.0001) HeatCapacity_Cp =  /* Specific heat capacity ( J/kg/K ) */
(PID.TID 0000.0001)                 3.994000000000000E+03
(PID.TID 0000.0001)     ;
(PID.TID 0000.0001) celsius2K = /* 0 degree Celsius converted to Kelvin ( K ) */
(PID.TID 0000.0001)                 2.731500000000000E+02
(PID.TID 0000.0001)     ;
(PID.TID 0000.0001) rhoConst  = /* Reference density (Boussinesq)  ( kg/m^3 ) */
(PID.TID 0000.0001)                 1.027500000000000E+03
(PID.TID 0000.0001)     ;
(PID.TID 0000.0001) rhoFacC = /* normalized Reference density @ cell-Center (-) */
(PID.TID 0000.0001)    31 @  1.000000000000000E+00              /* K =  1: 31 */
(PID.TID 0000.0001)     ;
(PID.TID 0000.0001) rhoFacF = /* normalized Reference density @ W-Interface (-) */
(PID.TID 0000.0001)    32 @  1.000000000000000E+00              /* K =  1: 32 */
(PID.TID 0000.0001)     ;
(PID.TID 0000.0001) rhoConstFresh = /* Fresh-water reference density ( kg/m^3 ) */
(PID.TID 0000.0001)                 9.998000000000000E+02
(PID.TID 0000.0001)     ;
(PID.TID 0000.0001) gravity =   /* Gravitational acceleration ( m/s^2 ) */
(PID.TID 0000.0001)                 9.810000000000000E+00
(PID.TID 0000.0001)     ;
(PID.TID 0000.0001) gBaro =   /* Barotropic gravity ( m/s^2 ) */
(PID.TID 0000.0001)                 9.810000000000000E+00
(PID.TID 0000.0001)     ;
(PID.TID 0000.0001) gravFacC = /* gravity factor (vs surf.) @ cell-Center (-) */
(PID.TID 0000.0001)    31 @  1.000000000000000E+00              /* K =  1: 31 */
(PID.TID 0000.0001)     ;
(PID.TID 0000.0001) gravFacF = /* gravity factor (vs surf.) @ W-Interface (-) */
(PID.TID 0000.0001)    32 @  1.000000000000000E+00              /* K =  1: 32 */
(PID.TID 0000.0001)     ;
(PID.TID 0000.0001) rotationPeriod =   /* Rotation Period ( s ) */
(PID.TID 0000.0001)                 8.616400000000000E+04
(PID.TID 0000.0001)     ;
(PID.TID 0000.0001) omega =   /* Angular velocity ( rad/s ) */
(PID.TID 0000.0001)                 7.292123516990375E-05
(PID.TID 0000.0001)     ;
(PID.TID 0000.0001) f0 =   /* Reference coriolis parameter ( 1/s ) */
(PID.TID 0000.0001)                 1.000000000000000E-04
(PID.TID 0000.0001)     ;
(PID.TID 0000.0001) beta =   /* Beta ( 1/(m.s) ) */
(PID.TID 0000.0001)                 9.999999999999999E-12
(PID.TID 0000.0001)     ;
(PID.TID 0000.0001) fPrime =   /* Second coriolis parameter ( 1/s ) */
(PID.TID 0000.0001)                 0.000000000000000E+00
(PID.TID 0000.0001)     ;
(PID.TID 0000.0001) rigidLid =   /* Rigid lid on/off flag */
(PID.TID 0000.0001)                   F
(PID.TID 0000.0001)     ;
(PID.TID 0000.0001) implicitFreeSurface =   /* Implicit free surface on/off flag */
(PID.TID 0000.0001)                   T
(PID.TID 0000.0001)     ;
(PID.TID 0000.0001) freeSurfFac =   /* Implicit free surface factor */
(PID.TID 0000.0001)                 1.000000000000000E+00
(PID.TID 0000.0001)     ;
(PID.TID 0000.0001) implicSurfPress =  /* Surface Pressure implicit factor (0-1) */
(PID.TID 0000.0001)                 1.000000000000000E+00
(PID.TID 0000.0001)     ;
(PID.TID 0000.0001) implicDiv2DFlow =  /* Barot. Flow Div. implicit factor (0-1) */
(PID.TID 0000.0001)                 1.000000000000000E+00
(PID.TID 0000.0001)     ;
(PID.TID 0000.0001) uniformLin_PhiSurf = /* use uniform Bo_surf on/off flag */
(PID.TID 0000.0001)                   T
(PID.TID 0000.0001)     ;
(PID.TID 0000.0001) uniformFreeSurfLev = /* free-surface level-index is uniform */
(PID.TID 0000.0001)                   T
(PID.TID 0000.0001)     ;
(PID.TID 0000.0001) sIceLoadFac =  /* scale factor for sIceLoad (0-1) */
(PID.TID 0000.0001)                 1.000000000000000E+00
(PID.TID 0000.0001)     ;
(PID.TID 0000.0001) hFacMin =   /* minimum partial cell factor (hFac) */
(PID.TID 0000.0001)                 3.000000000000000E-01
(PID.TID 0000.0001)     ;
(PID.TID 0000.0001) hFacMinDr = /* minimum partial cell thickness ( m) */
(PID.TID 0000.0001)                 5.000000000000000E+01
(PID.TID 0000.0001)     ;
(PID.TID 0000.0001) exactConserv =  /* Exact Volume Conservation on/off flag */
(PID.TID 0000.0001)                   T
(PID.TID 0000.0001)     ;
(PID.TID 0000.0001) linFSConserveTr = /* Tracer correction for Lin Free Surface on/off flag */
(PID.TID 0000.0001)                   F
(PID.TID 0000.0001)     ;
(PID.TID 0000.0001) nonlinFreeSurf = /* Non-linear Free Surf. options (-1,0,1,2,3)*/
(PID.TID 0000.0001)                       0
(PID.TID 0000.0001)      -1,0= Off ; 1,2,3= On, 2=+rescale gU,gV, 3=+update cg2d solv.
(PID.TID 0000.0001)     ;
(PID.TID 0000.0001) hFacInf =   /* lower threshold for hFac (nonlinFreeSurf only)*/
(PID.TID 0000.0001)                 1.000000000000000E-01
(PID.TID 0000.0001)     ;
(PID.TID 0000.0001) hFacSup =   /* upper threshold for hFac (nonlinFreeSurf only)*/
(PID.TID 0000.0001)                 5.000000000000000E+00
(PID.TID 0000.0001)     ;
(PID.TID 0000.0001) select_rStar = /* r* Vertical coord. options (=0 r coord.; >0 uses r*)*/
(PID.TID 0000.0001)                       0
(PID.TID 0000.0001)     ;
(PID.TID 0000.0001) useRealFreshWaterFlux = /* Real Fresh Water Flux on/off flag*/
(PID.TID 0000.0001)                   F
(PID.TID 0000.0001)     ;
(PID.TID 0000.0001) temp_EvPrRn = /* Temp. of Evap/Prec/R (UNSET=use local T)(oC)*/
(PID.TID 0000.0001)                 1.234567000000000E+05
(PID.TID 0000.0001)     ;
(PID.TID 0000.0001) salt_EvPrRn = /* Salin. of Evap/Prec/R (UNSET=use local S)(g/kg)*/
(PID.TID 0000.0001)                 0.000000000000000E+00
(PID.TID 0000.0001)     ;
(PID.TID 0000.0001) selectAddFluid = /* option for mass source/sink of fluid (=0: off) */
(PID.TID 0000.0001)                       0
(PID.TID 0000.0001)     ;
(PID.TID 0000.0001) temp_addMass = /* Temp. of addMass array (UNSET=use local T)(oC)*/
(PID.TID 0000.0001)                 1.234567000000000E+05
(PID.TID 0000.0001)     ;
(PID.TID 0000.0001) salt_addMass = /* Salin. of addMass array (UNSET=use local S)(g/kg)*/
(PID.TID 0000.0001)                 0.000000000000000E+00
(PID.TID 0000.0001)     ;
(PID.TID 0000.0001) convertFW2Salt = /* convert F.W. Flux to Salt Flux (-1=use local S)(g/kg)*/
(PID.TID 0000.0001)                 3.500000000000000E+01
(PID.TID 0000.0001)     ;
(PID.TID 0000.0001) use3Dsolver = /* use 3-D pressure solver on/off flag */
(PID.TID 0000.0001)                   F
(PID.TID 0000.0001)     ;
(PID.TID 0000.0001) nonHydrostatic =  /* Non-Hydrostatic on/off flag */
(PID.TID 0000.0001)                   F
(PID.TID 0000.0001)     ;
(PID.TID 0000.0001) nh_Am2 = /* Non-Hydrostatic terms scaling factor */
(PID.TID 0000.0001)                 1.000000000000000E+00
(PID.TID 0000.0001)     ;
(PID.TID 0000.0001) implicitNHPress = /* Non-Hyd Pressure implicit factor (0-1)*/
(PID.TID 0000.0001)                 1.000000000000000E+00
(PID.TID 0000.0001)     ;
(PID.TID 0000.0001) selectNHfreeSurf = /* Non-Hyd (free-)Surface option */
(PID.TID 0000.0001)                       0
(PID.TID 0000.0001)     ;
(PID.TID 0000.0001) quasiHydrostatic = /* Quasi-Hydrostatic on/off flag */
(PID.TID 0000.0001)                   F
(PID.TID 0000.0001)     ;
(PID.TID 0000.0001) calc_wVelocity = /* vertical velocity calculation on/off flag */
(PID.TID 0000.0001)                   T
(PID.TID 0000.0001)     ;
(PID.TID 0000.0001) momStepping =  /* Momentum equation on/off flag */
(PID.TID 0000.0001)                   T
(PID.TID 0000.0001)     ;
(PID.TID 0000.0001) vectorInvariantMomentum= /* Vector-Invariant Momentum on/off */
(PID.TID 0000.0001)                   T
(PID.TID 0000.0001)     ;
(PID.TID 0000.0001) momAdvection =  /* Momentum advection on/off flag */
(PID.TID 0000.0001)                   T
(PID.TID 0000.0001)     ;
(PID.TID 0000.0001) momViscosity =  /* Momentum viscosity on/off flag */
(PID.TID 0000.0001)                   T
(PID.TID 0000.0001)     ;
(PID.TID 0000.0001) momImplVertAdv= /* Momentum implicit vert. advection on/off*/
(PID.TID 0000.0001)                   F
(PID.TID 0000.0001)     ;
(PID.TID 0000.0001) implicitViscosity = /* Implicit viscosity on/off flag */
(PID.TID 0000.0001)                   T
(PID.TID 0000.0001)     ;
(PID.TID 0000.0001) selectImplicitDrag= /* Implicit bot Drag options (0,1,2)*/
(PID.TID 0000.0001)                       0
(PID.TID 0000.0001)     0= Expl. ; 1= Impl. on provis. Vel ; 2= Fully Impl (with surf.P)
(PID.TID 0000.0001)     ;
(PID.TID 0000.0001) selectMetricTerms= /* Metric-Terms on/off flag (=0/1) */
(PID.TID 0000.0001)                       1
(PID.TID 0000.0001)     ;
(PID.TID 0000.0001) useNHMTerms = /* Non-Hydrostatic Metric-Terms on/off */
(PID.TID 0000.0001)                   F
(PID.TID 0000.0001)     ;
(PID.TID 0000.0001) selectCoriMap = /* Coriolis Map options (0,1,2,3)*/
(PID.TID 0000.0001)                       2
(PID.TID 0000.0001)     0= f-Plane ; 1= Beta-Plane ; 2= Spherical ; 3= read from file
(PID.TID 0000.0001)     ;
(PID.TID 0000.0001) select3dCoriScheme= /* 3-D Coriolis on/off flag (=0/1) */
(PID.TID 0000.0001)                       0
(PID.TID 0000.0001)     ;
(PID.TID 0000.0001) useCoriolis =  /* Coriolis on/off flag */
(PID.TID 0000.0001)                   T
(PID.TID 0000.0001)     ;
(PID.TID 0000.0001) useCDscheme =  /* CD scheme on/off flag */
(PID.TID 0000.0001)                   F
(PID.TID 0000.0001)     ;
(PID.TID 0000.0001) selectCoriScheme= /* Scheme selector for Coriolis-Term */
(PID.TID 0000.0001)                       0
(PID.TID 0000.0001)    = 0 : original discretization (simple averaging, no hFac)
(PID.TID 0000.0001)    = 1 : Wet-point averaging (Jamar & Ozer 1986)
(PID.TID 0000.0001)    = 2 : hFac weighted average (Angular Mom. conserving)
(PID.TID 0000.0001)    = 3 : energy conserving scheme using hFac weighted average
(PID.TID 0000.0001)     ;
(PID.TID 0000.0001) useAbsVorticity= /* V.I Works with f+zeta in Coriolis */
(PID.TID 0000.0001)                   F
(PID.TID 0000.0001)     ;
(PID.TID 0000.0001) selectVortScheme= /* V.I Scheme selector for Vorticity-Term */
(PID.TID 0000.0001)                       1
(PID.TID 0000.0001)    = 0 : enstrophy (Shallow-Water Eq.) conserving scheme by Sadourny, JAS 75
(PID.TID 0000.0001)    = 1 : same as 0 with modified hFac
(PID.TID 0000.0001)    = 2 : energy conserving scheme (used by Sadourny in JAS 75 paper)
(PID.TID 0000.0001)    = 3 : energy (general) and enstrophy (2D, nonDiv.) conserving scheme
(PID.TID 0000.0001)          from Sadourny (Burridge & Haseler, ECMWF Rep.4, 1977)
(PID.TID 0000.0001)     ;
(PID.TID 0000.0001) useJamartMomAdv= /* V.I Non-linear terms Jamart flag */
(PID.TID 0000.0001)                   F
(PID.TID 0000.0001)     ;
(PID.TID 0000.0001) upwindVorticity= /* V.I Upwind bias vorticity flag */
(PID.TID 0000.0001)                   F
(PID.TID 0000.0001)     ;
(PID.TID 0000.0001) highOrderVorticity= /* V.I High order vort. advect. flag */
(PID.TID 0000.0001)                   F
(PID.TID 0000.0001)     ;
(PID.TID 0000.0001) upwindShear= /* V.I Upwind vertical Shear advection flag */
(PID.TID 0000.0001)                   F
(PID.TID 0000.0001)     ;
(PID.TID 0000.0001) selectKEscheme= /* V.I Kinetic Energy scheme selector */
(PID.TID 0000.0001)                       0
(PID.TID 0000.0001)     ;
(PID.TID 0000.0001) momForcing =  /* Momentum forcing on/off flag */
(PID.TID 0000.0001)                   T
(PID.TID 0000.0001)     ;
(PID.TID 0000.0001) momTidalForcing = /* Momentum Tidal forcing on/off flag */
(PID.TID 0000.0001)                   T
(PID.TID 0000.0001)     ;
(PID.TID 0000.0001) momPressureForcing =  /* Momentum pressure term on/off flag */
(PID.TID 0000.0001)                   T
(PID.TID 0000.0001)     ;
(PID.TID 0000.0001) implicitIntGravWave= /* Implicit Internal Gravity Wave flag */
(PID.TID 0000.0001)                   F
(PID.TID 0000.0001)     ;
(PID.TID 0000.0001) staggerTimeStep =    /* Stagger time stepping on/off flag */
(PID.TID 0000.0001)                   T
(PID.TID 0000.0001)     ;
(PID.TID 0000.0001) doResetHFactors = /* reset thickness factors @ each time-step */
(PID.TID 0000.0001)                   F
(PID.TID 0000.0001)     ;
(PID.TID 0000.0001) multiDimAdvection =  /* enable/disable Multi-Dim Advection */
(PID.TID 0000.0001)                   T
(PID.TID 0000.0001)     ;
(PID.TID 0000.0001) useMultiDimAdvec =   /* Multi-Dim Advection is/is-not used */
(PID.TID 0000.0001)                   T
(PID.TID 0000.0001)     ;
(PID.TID 0000.0001) implicitDiffusion = /* Implicit Diffusion on/off flag */
(PID.TID 0000.0001)                   T
(PID.TID 0000.0001)     ;
(PID.TID 0000.0001) tempStepping =  /* Temperature equation on/off flag */
(PID.TID 0000.0001)                   T
(PID.TID 0000.0001)     ;
(PID.TID 0000.0001) tempAdvection = /* Temperature advection on/off flag */
(PID.TID 0000.0001)                   T
(PID.TID 0000.0001)     ;
(PID.TID 0000.0001) tempImplVertAdv = /* Temp. implicit vert. advection on/off */
(PID.TID 0000.0001)                   F
(PID.TID 0000.0001)     ;
(PID.TID 0000.0001) tempForcing  =  /* Temperature forcing on/off flag */
(PID.TID 0000.0001)                   T
(PID.TID 0000.0001)     ;
(PID.TID 0000.0001) doThetaClimRelax = /* apply SST relaxation on/off flag */
(PID.TID 0000.0001)                   T
(PID.TID 0000.0001)     ;
(PID.TID 0000.0001) tempIsActiveTr = /* Temp. is a dynamically Active Tracer */
(PID.TID 0000.0001)                   T
(PID.TID 0000.0001)     ;
(PID.TID 0000.0001) saltStepping =  /* Salinity equation on/off flag */
(PID.TID 0000.0001)                   T
(PID.TID 0000.0001)     ;
(PID.TID 0000.0001) saltAdvection = /* Salinity advection on/off flag */
(PID.TID 0000.0001)                   T
(PID.TID 0000.0001)     ;
(PID.TID 0000.0001) saltImplVertAdv = /* Sali. implicit vert. advection on/off */
(PID.TID 0000.0001)                   F
(PID.TID 0000.0001)     ;
(PID.TID 0000.0001) saltForcing  =  /* Salinity forcing on/off flag */
(PID.TID 0000.0001)                   F
(PID.TID 0000.0001)     ;
(PID.TID 0000.0001) doSaltClimRelax = /* apply SSS relaxation on/off flag */
(PID.TID 0000.0001)                   F
(PID.TID 0000.0001)     ;
(PID.TID 0000.0001) saltIsActiveTr = /* Salt  is a dynamically Active Tracer */
(PID.TID 0000.0001)                   T
(PID.TID 0000.0001)     ;
(PID.TID 0000.0001)  readBinaryPrec = /* Precision used for reading binary files */
(PID.TID 0000.0001)                      32
(PID.TID 0000.0001)     ;
(PID.TID 0000.0001) writeBinaryPrec = /* Precision used for writing binary files */
(PID.TID 0000.0001)                      32
(PID.TID 0000.0001)     ;
(PID.TID 0000.0001)  rwSuffixType =   /* select format of mds file suffix */
(PID.TID 0000.0001)                       0
(PID.TID 0000.0001)    = 0 : myIter (I10.10) ;   = 1 : 100*myTime (100th sec) ;
(PID.TID 0000.0001)    = 2 : myTime (seconds);   = 3 : myTime/360 (10th of hr);
(PID.TID 0000.0001)    = 4 : myTime/3600 (hours)
(PID.TID 0000.0001)     ;
(PID.TID 0000.0001)  globalFiles = /* write "global" (=not per tile) files */
(PID.TID 0000.0001)                   F
(PID.TID 0000.0001)     ;
(PID.TID 0000.0001)  useSingleCpuIO = /* only master MPI process does I/O */
(PID.TID 0000.0001)                   T
(PID.TID 0000.0001)     ;
(PID.TID 0000.0001)  useSingleCpuInput = /* only master process reads input */
(PID.TID 0000.0001)                   T
(PID.TID 0000.0001)     ;
(PID.TID 0000.0001) /* debLev[*]  : level of debug & auxiliary message printing */
(PID.TID 0000.0001) debLevZero =  0 ; /* level of disabled aux. msg printing */
(PID.TID 0000.0001)    debLevA =  1 ; /* level of minimum  aux. msg printing */
(PID.TID 0000.0001)    debLevB =  2 ; /* level of low aux. print (report read-file opening)*/
(PID.TID 0000.0001)    debLevC =  3 ; /* level of moderate debug prt (most pkgs debug msg) */
(PID.TID 0000.0001)    debLevD =  4 ; /* level of enhanced debug prt (add DEBUG_STATS prt) */
(PID.TID 0000.0001)    debLevE =  5 ; /* level of extensive debug printing */
(PID.TID 0000.0001) debugLevel =  /* select debug printing level */
(PID.TID 0000.0001)                       0
(PID.TID 0000.0001)     ;
(PID.TID 0000.0001)  plotLevel =  /* select PLOT_FIELD printing level */
(PID.TID 0000.0001)                       0
(PID.TID 0000.0001)     ;
(PID.TID 0000.0001) //
(PID.TID 0000.0001) // Elliptic solver(s) paramters ( PARM02 in namelist )
(PID.TID 0000.0001) //
(PID.TID 0000.0001) cg2dMaxIters =   /* Upper limit on 2d con. grad iterations  */
(PID.TID 0000.0001)                     100
(PID.TID 0000.0001)     ;
(PID.TID 0000.0001) cg2dMinItersNSA =   /* Minimum number of iterations of 2d con. grad solver  */
(PID.TID 0000.0001)                       0
(PID.TID 0000.0001)     ;
(PID.TID 0000.0001) cg2dUseMinResSol= /* use cg2d last-iter(=0) / min-resid.(=1) solution */
(PID.TID 0000.0001)                       0
(PID.TID 0000.0001)     ;
(PID.TID 0000.0001) cg2dTargetResidual =   /* 2d con. grad target residual  */
(PID.TID 0000.0001)                 1.000000000000000E-05
(PID.TID 0000.0001)     ;
(PID.TID 0000.0001) cg2dTargetResWunit =   /* CG2d target residual [W units] */
(PID.TID 0000.0001)                -1.000000000000000E+00
(PID.TID 0000.0001)     ;
(PID.TID 0000.0001) cg2dPreCondFreq =   /* Freq. for updating cg2d preconditioner */
(PID.TID 0000.0001)                       1
(PID.TID 0000.0001)     ;
(PID.TID 0000.0001) useSRCGSolver =  /* use single reduction CG solver(s) */
(PID.TID 0000.0001)                   F
(PID.TID 0000.0001)     ;
(PID.TID 0000.0001) useNSACGSolver =  /* use not-self-adjoint CG solver */
(PID.TID 0000.0001)                   F
(PID.TID 0000.0001)     ;
(PID.TID 0000.0001) printResidualFreq = /* Freq. for printing CG residual */
(PID.TID 0000.0001)                       0
(PID.TID 0000.0001)     ;
(PID.TID 0000.0001) //
(PID.TID 0000.0001) // Time stepping paramters ( PARM03 in namelist )
(PID.TID 0000.0001) //
(PID.TID 0000.0001) deltaTMom =   /* Momentum equation timestep ( s ) */
(PID.TID 0000.0001)                 1.200000000000000E+03
(PID.TID 0000.0001)     ;
(PID.TID 0000.0001) deltaTFreeSurf = /* FreeSurface equation timestep ( s ) */
(PID.TID 0000.0001)                 1.200000000000000E+03
(PID.TID 0000.0001)     ;
(PID.TID 0000.0001) dTtracerLev =  /* Tracer equation timestep ( s ) */
(PID.TID 0000.0001)    31 @  1.200000000000000E+03              /* K =  1: 31 */
(PID.TID 0000.0001)     ;
(PID.TID 0000.0001) deltaTClock  =   /* Model clock timestep ( s ) */
(PID.TID 0000.0001)                 1.200000000000000E+03
(PID.TID 0000.0001)     ;
(PID.TID 0000.0001) cAdjFreq =   /* Convective adjustment interval ( s ) */
(PID.TID 0000.0001)                 0.000000000000000E+00
(PID.TID 0000.0001)     ;
(PID.TID 0000.0001) momForcingOutAB = /* =1: take Momentum Forcing out of Adams-Bash. stepping */
(PID.TID 0000.0001)                       0
(PID.TID 0000.0001)     ;
(PID.TID 0000.0001) tracForcingOutAB = /* =1: take T,S,pTr Forcing out of Adams-Bash. stepping */
(PID.TID 0000.0001)                       0
(PID.TID 0000.0001)     ;
(PID.TID 0000.0001) momDissip_In_AB = /* put Dissipation Tendency in Adams-Bash. stepping */
(PID.TID 0000.0001)                   T
(PID.TID 0000.0001)     ;
(PID.TID 0000.0001) doAB_onGtGs = /* apply AB on Tendencies (rather than on T,S)*/
(PID.TID 0000.0001)                   T
(PID.TID 0000.0001)     ;
(PID.TID 0000.0001) abEps =   /* Adams-Bashforth-2 stabilizing weight */
(PID.TID 0000.0001)                 1.000000000000000E-02
(PID.TID 0000.0001)     ;
(PID.TID 0000.0001) applyExchUV_early = /* Apply EXCH to U,V earlier in time-step */
(PID.TID 0000.0001)                   F
(PID.TID 0000.0001)     ;
(PID.TID 0000.0001) pickupStrictlyMatch= /* stop if pickup do not strictly match */
(PID.TID 0000.0001)                   T
(PID.TID 0000.0001)     ;
(PID.TID 0000.0001) nIter0   =   /* Run starting timestep number */
(PID.TID 0000.0001)                       0
(PID.TID 0000.0001)     ;
(PID.TID 0000.0001) nTimeSteps = /* Number of timesteps */
(PID.TID 0000.0001)                   25920
(PID.TID 0000.0001)     ;
(PID.TID 0000.0001) nEndIter =   /* Run ending timestep number */
(PID.TID 0000.0001)                   25920
(PID.TID 0000.0001)     ;
(PID.TID 0000.0001) baseTime =   /* Model base time ( s ) */
(PID.TID 0000.0001)                 0.000000000000000E+00
(PID.TID 0000.0001)     ;
(PID.TID 0000.0001) startTime =  /* Run start time ( s ) */
(PID.TID 0000.0001)                 0.000000000000000E+00
(PID.TID 0000.0001)     ;
(PID.TID 0000.0001) endTime  =   /* Integration ending time ( s ) */
(PID.TID 0000.0001)                 3.110400000000000E+07
(PID.TID 0000.0001)     ;
(PID.TID 0000.0001) pChkPtFreq = /* Permanent restart/pickup file interval ( s ) */
(PID.TID 0000.0001)                 3.110400000000000E+07
(PID.TID 0000.0001)     ;
(PID.TID 0000.0001) chkPtFreq  = /* Rolling restart/pickup file interval ( s ) */
(PID.TID 0000.0001)                 2.592000000000000E+06
(PID.TID 0000.0001)     ;
(PID.TID 0000.0001) pickup_write_mdsio =   /* Model IO flag. */
(PID.TID 0000.0001)                   T
(PID.TID 0000.0001)     ;
(PID.TID 0000.0001) pickup_read_mdsio =   /* Model IO flag. */
(PID.TID 0000.0001)                   T
(PID.TID 0000.0001)     ;
(PID.TID 0000.0001) writePickupAtEnd =   /* Model IO flag. */
(PID.TID 0000.0001)                   T
(PID.TID 0000.0001)     ;
(PID.TID 0000.0001) dumpFreq =   /* Model state write out interval ( s ). */
(PID.TID 0000.0001)                 0.000000000000000E+00
(PID.TID 0000.0001)     ;
(PID.TID 0000.0001) dumpInitAndLast= /* write out Initial & Last iter. model state */
(PID.TID 0000.0001)                   T
(PID.TID 0000.0001)     ;
(PID.TID 0000.0001) snapshot_mdsio =   /* Model IO flag. */
(PID.TID 0000.0001)                   T
(PID.TID 0000.0001)     ;
(PID.TID 0000.0001) monitorFreq =   /* Monitor output interval ( s ). */
(PID.TID 0000.0001)                 2.592000000000000E+06
(PID.TID 0000.0001)     ;
(PID.TID 0000.0001) monitorSelect = /* select group of variables to monitor */
(PID.TID 0000.0001)                       2
(PID.TID 0000.0001)     ;
(PID.TID 0000.0001) monitor_stdio =   /* Model IO flag. */
(PID.TID 0000.0001)                   T
(PID.TID 0000.0001)     ;
(PID.TID 0000.0001) externForcingPeriod =   /* forcing period (s) */
(PID.TID 0000.0001)                 0.000000000000000E+00
(PID.TID 0000.0001)     ;
(PID.TID 0000.0001) externForcingCycle =   /* period of the cyle (s). */
(PID.TID 0000.0001)                 0.000000000000000E+00
(PID.TID 0000.0001)     ;
(PID.TID 0000.0001) tauThetaClimRelax =   /* relaxation time scale (s) */
(PID.TID 0000.0001)                 2.592000000000000E+06
(PID.TID 0000.0001)     ;
(PID.TID 0000.0001) tauSaltClimRelax =   /* relaxation time scale (s) */
(PID.TID 0000.0001)                 0.000000000000000E+00
(PID.TID 0000.0001)     ;
(PID.TID 0000.0001) latBandClimRelax =   /* max. Lat. where relaxation */
(PID.TID 0000.0001)                 1.800000000000000E+02
(PID.TID 0000.0001)     ;
(PID.TID 0000.0001) //
(PID.TID 0000.0001) // Gridding paramters ( PARM04 in namelist )
(PID.TID 0000.0001) //
(PID.TID 0000.0001) usingCartesianGrid = /* Cartesian coordinates flag ( True/False ) */
(PID.TID 0000.0001)                   F
(PID.TID 0000.0001)     ;
(PID.TID 0000.0001) usingCylindricalGrid = /* Cylindrical coordinates flag ( True/False ) */
(PID.TID 0000.0001)                   F
(PID.TID 0000.0001)     ;
(PID.TID 0000.0001) usingSphericalPolarGrid = /* Spherical coordinates flag ( True/False ) */
(PID.TID 0000.0001)                   T
(PID.TID 0000.0001)     ;
(PID.TID 0000.0001) usingCurvilinearGrid = /* Curvilinear coordinates flag ( True/False ) */
(PID.TID 0000.0001)                   F
(PID.TID 0000.0001)     ;
(PID.TID 0000.0001) useMin4hFacEdges = /* set hFacW,S as minimum of adjacent hFacC factor */
(PID.TID 0000.0001)                   F
(PID.TID 0000.0001)     ;
(PID.TID 0000.0001) interViscAr_pCell = /* account for partial-cell in interior vert. viscosity */
(PID.TID 0000.0001)                   F
(PID.TID 0000.0001)     ;
(PID.TID 0000.0001) interDiffKr_pCell = /* account for partial-cell in interior vert. diffusion */
(PID.TID 0000.0001)                   F
(PID.TID 0000.0001)     ;
(PID.TID 0000.0001) pCellMix_select = /* option to enhance mixing near surface & bottom */
(PID.TID 0000.0001)                       0
(PID.TID 0000.0001)     ;
(PID.TID 0000.0001) selectSigmaCoord = /* Hybrid-Sigma Vert. Coordinate option */
(PID.TID 0000.0001)                       0
(PID.TID 0000.0001)     ;
(PID.TID 0000.0001) rSigmaBnd = /* r/sigma transition ( units of r ==  m ) */
(PID.TID 0000.0001)                 1.234567000000000E+05
(PID.TID 0000.0001)     ;
(PID.TID 0000.0001) rkSign =   /* index orientation relative to vertical coordinate */
(PID.TID 0000.0001)                -1.000000000000000E+00
(PID.TID 0000.0001)     ;
(PID.TID 0000.0001) gravitySign = /* gravity orientation relative to vertical coordinate */
(PID.TID 0000.0001)                -1.000000000000000E+00
(PID.TID 0000.0001)     ;
(PID.TID 0000.0001) seaLev_Z =  /* reference height of sea-level [m] */
(PID.TID 0000.0001)                 0.000000000000000E+00
(PID.TID 0000.0001)     ;
(PID.TID 0000.0001) top_Pres =  /* reference pressure at the top [Pa] */
(PID.TID 0000.0001)                 0.000000000000000E+00
(PID.TID 0000.0001)     ;
(PID.TID 0000.0001) mass2rUnit = /* convert mass per unit area [kg/m2] to r-units [m] */
(PID.TID 0000.0001)                 9.732360097323601E-04
(PID.TID 0000.0001)     ;
(PID.TID 0000.0001) rUnit2mass = /* convert r-units [m] to mass per unit area [kg/m2] */
(PID.TID 0000.0001)                 1.027500000000000E+03
(PID.TID 0000.0001)     ;
(PID.TID 0000.0001) drC =   /* C spacing ( units of r ) */
(PID.TID 0000.0001)                 5.000000000000000E+00,      /* K =  1 */
(PID.TID 0000.0001)                 1.066500000000000E+01,      /* K =  2 */
(PID.TID 0000.0001)                 1.208000000000000E+01,      /* K =  3 */
(PID.TID 0000.0001)                 1.368000000000000E+01,      /* K =  4 */
(PID.TID 0000.0001)                 1.549000000000000E+01,      /* K =  5 */
(PID.TID 0000.0001)                 1.754000000000000E+01,      /* K =  6 */
(PID.TID 0000.0001)                 1.986500000000000E+01,      /* K =  7 */
(PID.TID 0000.0001)                 2.250000000000000E+01,      /* K =  8 */
(PID.TID 0000.0001)                 2.548500000000000E+01,      /* K =  9 */
(PID.TID 0000.0001)                 2.886000000000000E+01,      /* K = 10 */
(PID.TID 0000.0001)                 3.268500000000000E+01,      /* K = 11 */
(PID.TID 0000.0001)                 3.702000000000000E+01,      /* K = 12 */
(PID.TID 0000.0001)                 4.192500000000000E+01,      /* K = 13 */
(PID.TID 0000.0001)                 4.748000000000000E+01,      /* K = 14 */
(PID.TID 0000.0001)                 5.377500000000000E+01,      /* K = 15 */
(PID.TID 0000.0001)                 6.090500000000000E+01,      /* K = 16 */
(PID.TID 0000.0001)                 6.897499999999999E+01,      /* K = 17 */
(PID.TID 0000.0001)                 7.811500000000001E+01,      /* K = 18 */
(PID.TID 0000.0001)                 8.847000000000000E+01,      /* K = 19 */
(PID.TID 0000.0001)                 1.001950000000000E+02,      /* K = 20 */
(PID.TID 0000.0001)                 1.134750000000000E+02,      /* K = 21 */
(PID.TID 0000.0001)                 1.285150000000000E+02,      /* K = 22 */
(PID.TID 0000.0001)                 1.455450000000000E+02,      /* K = 23 */
(PID.TID 0000.0001)                 1.648350000000000E+02,      /* K = 24 */
(PID.TID 0000.0001)                 1.866850000000000E+02,      /* K = 25 */
(PID.TID 0000.0001)                 2.114300000000000E+02,      /* K = 26 */
(PID.TID 0000.0001)                 2.394550000000000E+02,      /* K = 27 */
(PID.TID 0000.0001)                 2.711950000000000E+02,      /* K = 28 */
(PID.TID 0000.0001)                 3.071400000000000E+02,      /* K = 29 */
(PID.TID 0000.0001)                 3.478500000000000E+02,      /* K = 30 */
(PID.TID 0000.0001)                 3.939500000000000E+02,      /* K = 31 */
(PID.TID 0000.0001)                 2.092150000000000E+02       /* K = 32 */
(PID.TID 0000.0001)     ;
(PID.TID 0000.0001) drF =   /* W spacing ( units of r ) */
(PID.TID 0000.0001)                 1.000000000000000E+01,      /* K =  1 */
(PID.TID 0000.0001)                 1.133000000000000E+01,      /* K =  2 */
(PID.TID 0000.0001)                 1.283000000000000E+01,      /* K =  3 */
(PID.TID 0000.0001)                 1.453000000000000E+01,      /* K =  4 */
(PID.TID 0000.0001)                 1.645000000000000E+01,      /* K =  5 */
(PID.TID 0000.0001)                 1.863000000000000E+01,      /* K =  6 */
(PID.TID 0000.0001)                 2.110000000000000E+01,      /* K =  7 */
(PID.TID 0000.0001)                 2.390000000000000E+01,      /* K =  8 */
(PID.TID 0000.0001)                 2.707000000000000E+01,      /* K =  9 */
(PID.TID 0000.0001)                 3.065000000000000E+01,      /* K = 10 */
(PID.TID 0000.0001)                 3.472000000000000E+01,      /* K = 11 */
(PID.TID 0000.0001)                 3.932000000000000E+01,      /* K = 12 */
(PID.TID 0000.0001)                 4.453000000000000E+01,      /* K = 13 */
(PID.TID 0000.0001)                 5.043000000000000E+01,      /* K = 14 */
(PID.TID 0000.0001)                 5.712000000000000E+01,      /* K = 15 */
(PID.TID 0000.0001)                 6.469000000000000E+01,      /* K = 16 */
(PID.TID 0000.0001)                 7.326000000000001E+01,      /* K = 17 */
(PID.TID 0000.0001)                 8.297000000000000E+01,      /* K = 18 */
(PID.TID 0000.0001)                 9.397000000000000E+01,      /* K = 19 */
(PID.TID 0000.0001)                 1.064200000000000E+02,      /* K = 20 */
(PID.TID 0000.0001)                 1.205300000000000E+02,      /* K = 21 */
(PID.TID 0000.0001)                 1.365000000000000E+02,      /* K = 22 */
(PID.TID 0000.0001)                 1.545900000000000E+02,      /* K = 23 */
(PID.TID 0000.0001)                 1.750800000000000E+02,      /* K = 24 */
(PID.TID 0000.0001)                 1.982900000000000E+02,      /* K = 25 */
(PID.TID 0000.0001)                 2.245700000000000E+02,      /* K = 26 */
(PID.TID 0000.0001)                 2.543400000000000E+02,      /* K = 27 */
(PID.TID 0000.0001)                 2.880500000000000E+02,      /* K = 28 */
(PID.TID 0000.0001)                 3.262300000000000E+02,      /* K = 29 */
(PID.TID 0000.0001)                 3.694700000000000E+02,      /* K = 30 */
(PID.TID 0000.0001)                 4.184300000000000E+02       /* K = 31 */
(PID.TID 0000.0001)     ;
(PID.TID 0000.0001) delX = /* U spacing ( m - cartesian, degrees - spherical ) */
(PID.TID 0000.0001)    62 @  1.000000000000000E+00              /* I =  1: 62 */
(PID.TID 0000.0001)     ;
(PID.TID 0000.0001) delY = /* V spacing ( m - cartesian, degrees - spherical ) */
(PID.TID 0000.0001)    62 @  1.000000000000000E+00              /* J =  1: 62 */
(PID.TID 0000.0001)     ;
(PID.TID 0000.0001) xgOrigin = /* X-axis origin of West  edge (cartesian: m, lat-lon: deg) */
(PID.TID 0000.0001)                -1.000000000000000E+00
(PID.TID 0000.0001)     ;
(PID.TID 0000.0001) ygOrigin = /* Y-axis origin of South edge (cartesian: m, lat-lon: deg) */
(PID.TID 0000.0001)                 1.400000000000000E+01
(PID.TID 0000.0001)     ;
(PID.TID 0000.0001) rSphere =  /* Radius ( ignored - cartesian, m - spherical ) */
(PID.TID 0000.0001)                 6.370000000000000E+06
(PID.TID 0000.0001)     ;
(PID.TID 0000.0001) deepAtmosphere = /* Deep/Shallow Atmosphere flag (True/False) */
(PID.TID 0000.0001)                   F
(PID.TID 0000.0001)     ;
(PID.TID 0000.0001) xC =  /* xC(:,1,:,1) : P-point X coord ( deg. or m if cartesian) */
(PID.TID 0000.0001)                -5.000000000000000E-01,      /* I =  1 */
(PID.TID 0000.0001)                 5.000000000000000E-01,      /* I =  2 */
(PID.TID 0000.0001)                 1.500000000000000E+00,      /* I =  3 */
(PID.TID 0000.0001)                 2.500000000000000E+00,      /* I =  4 */
(PID.TID 0000.0001)                 3.500000000000000E+00,      /* I =  5 */
(PID.TID 0000.0001)                 4.500000000000000E+00,      /* I =  6 */
(PID.TID 0000.0001)                 5.500000000000000E+00,      /* I =  7 */
(PID.TID 0000.0001)                 6.500000000000000E+00,      /* I =  8 */
(PID.TID 0000.0001)                 7.500000000000000E+00,      /* I =  9 */
(PID.TID 0000.0001)                 8.500000000000000E+00,      /* I = 10 */
(PID.TID 0000.0001)                 9.500000000000000E+00,      /* I = 11 */
(PID.TID 0000.0001)                 1.050000000000000E+01,      /* I = 12 */
(PID.TID 0000.0001)                 1.150000000000000E+01,      /* I = 13 */
(PID.TID 0000.0001)                 1.250000000000000E+01,      /* I = 14 */
(PID.TID 0000.0001)                 1.350000000000000E+01,      /* I = 15 */
(PID.TID 0000.0001)                 1.450000000000000E+01,      /* I = 16 */
(PID.TID 0000.0001)                 1.550000000000000E+01,      /* I = 17 */
(PID.TID 0000.0001)                 1.650000000000000E+01,      /* I = 18 */
(PID.TID 0000.0001)                 1.750000000000000E+01,      /* I = 19 */
(PID.TID 0000.0001)                 1.850000000000000E+01,      /* I = 20 */
(PID.TID 0000.0001)                 1.950000000000000E+01,      /* I = 21 */
(PID.TID 0000.0001)                 2.050000000000000E+01,      /* I = 22 */
(PID.TID 0000.0001)                 2.150000000000000E+01,      /* I = 23 */
(PID.TID 0000.0001)                 2.250000000000000E+01,      /* I = 24 */
(PID.TID 0000.0001)                 2.350000000000000E+01,      /* I = 25 */
(PID.TID 0000.0001)                 2.450000000000000E+01,      /* I = 26 */
(PID.TID 0000.0001)                 2.550000000000000E+01,      /* I = 27 */
(PID.TID 0000.0001)                 2.650000000000000E+01,      /* I = 28 */
(PID.TID 0000.0001)                 2.750000000000000E+01,      /* I = 29 */
(PID.TID 0000.0001)                 2.850000000000000E+01,      /* I = 30 */
(PID.TID 0000.0001)                 2.950000000000000E+01,      /* I = 31 */
(PID.TID 0000.0001)                 3.050000000000000E+01,      /* I = 32 */
(PID.TID 0000.0001)                 3.150000000000000E+01,      /* I = 33 */
(PID.TID 0000.0001)                 3.250000000000000E+01,      /* I = 34 */
(PID.TID 0000.0001)                 3.350000000000000E+01,      /* I = 35 */
(PID.TID 0000.0001)                 3.450000000000000E+01,      /* I = 36 */
(PID.TID 0000.0001)                 3.550000000000000E+01,      /* I = 37 */
(PID.TID 0000.0001)                 3.650000000000000E+01,      /* I = 38 */
(PID.TID 0000.0001)                 3.750000000000000E+01,      /* I = 39 */
(PID.TID 0000.0001)                 3.850000000000000E+01,      /* I = 40 */
(PID.TID 0000.0001)                 3.950000000000000E+01,      /* I = 41 */
(PID.TID 0000.0001)                 4.050000000000000E+01,      /* I = 42 */
(PID.TID 0000.0001)                 4.150000000000000E+01,      /* I = 43 */
(PID.TID 0000.0001)                 4.250000000000000E+01,      /* I = 44 */
(PID.TID 0000.0001)                 4.350000000000000E+01,      /* I = 45 */
(PID.TID 0000.0001)                 4.450000000000000E+01,      /* I = 46 */
(PID.TID 0000.0001)                 4.550000000000000E+01,      /* I = 47 */
(PID.TID 0000.0001)                 4.650000000000000E+01,      /* I = 48 */
(PID.TID 0000.0001)                 4.750000000000000E+01,      /* I = 49 */
(PID.TID 0000.0001)                 4.850000000000000E+01,      /* I = 50 */
(PID.TID 0000.0001)                 4.950000000000000E+01,      /* I = 51 */
(PID.TID 0000.0001)                 5.050000000000000E+01,      /* I = 52 */
(PID.TID 0000.0001)                 5.150000000000000E+01,      /* I = 53 */
(PID.TID 0000.0001)                 5.250000000000000E+01,      /* I = 54 */
(PID.TID 0000.0001)                 5.350000000000000E+01,      /* I = 55 */
(PID.TID 0000.0001)                 5.450000000000000E+01,      /* I = 56 */
(PID.TID 0000.0001)                 5.550000000000000E+01,      /* I = 57 */
(PID.TID 0000.0001)                 5.650000000000000E+01,      /* I = 58 */
(PID.TID 0000.0001)                 5.750000000000000E+01,      /* I = 59 */
(PID.TID 0000.0001)                 5.850000000000000E+01,      /* I = 60 */
(PID.TID 0000.0001)                 5.950000000000000E+01,      /* I = 61 */
(PID.TID 0000.0001)                 6.050000000000000E+01       /* I = 62 */
(PID.TID 0000.0001)     ;
(PID.TID 0000.0001) yC =  /* yC(1,:,1,:) : P-point Y coord ( deg. or m if cartesian) */
(PID.TID 0000.0001)                 1.450000000000000E+01,      /* J =  1 */
(PID.TID 0000.0001)                 1.550000000000000E+01,      /* J =  2 */
(PID.TID 0000.0001)                 1.650000000000000E+01,      /* J =  3 */
(PID.TID 0000.0001)                 1.750000000000000E+01,      /* J =  4 */
(PID.TID 0000.0001)                 1.850000000000000E+01,      /* J =  5 */
(PID.TID 0000.0001)                 1.950000000000000E+01,      /* J =  6 */
(PID.TID 0000.0001)                 2.050000000000000E+01,      /* J =  7 */
(PID.TID 0000.0001)                 2.150000000000000E+01,      /* J =  8 */
(PID.TID 0000.0001)                 2.250000000000000E+01,      /* J =  9 */
(PID.TID 0000.0001)                 2.350000000000000E+01,      /* J = 10 */
(PID.TID 0000.0001)                 2.450000000000000E+01,      /* J = 11 */
(PID.TID 0000.0001)                 2.550000000000000E+01,      /* J = 12 */
(PID.TID 0000.0001)                 2.650000000000000E+01,      /* J = 13 */
(PID.TID 0000.0001)                 2.750000000000000E+01,      /* J = 14 */
(PID.TID 0000.0001)                 2.850000000000000E+01,      /* J = 15 */
(PID.TID 0000.0001)                 2.950000000000000E+01,      /* J = 16 */
(PID.TID 0000.0001)                 3.050000000000000E+01,      /* J = 17 */
(PID.TID 0000.0001)                 3.150000000000000E+01,      /* J = 18 */
(PID.TID 0000.0001)                 3.250000000000000E+01,      /* J = 19 */
(PID.TID 0000.0001)                 3.350000000000000E+01,      /* J = 20 */
(PID.TID 0000.0001)                 3.450000000000000E+01,      /* J = 21 */
(PID.TID 0000.0001)                 3.550000000000000E+01,      /* J = 22 */
(PID.TID 0000.0001)                 3.650000000000000E+01,      /* J = 23 */
(PID.TID 0000.0001)                 3.750000000000000E+01,      /* J = 24 */
(PID.TID 0000.0001)                 3.850000000000000E+01,      /* J = 25 */
(PID.TID 0000.0001)                 3.950000000000000E+01,      /* J = 26 */
(PID.TID 0000.0001)                 4.050000000000000E+01,      /* J = 27 */
(PID.TID 0000.0001)                 4.150000000000000E+01,      /* J = 28 */
(PID.TID 0000.0001)                 4.250000000000000E+01,      /* J = 29 */
(PID.TID 0000.0001)                 4.350000000000000E+01,      /* J = 30 */
(PID.TID 0000.0001)                 4.450000000000000E+01,      /* J = 31 */
(PID.TID 0000.0001)                 4.550000000000000E+01,      /* J = 32 */
(PID.TID 0000.0001)                 4.650000000000000E+01,      /* J = 33 */
(PID.TID 0000.0001)                 4.750000000000000E+01,      /* J = 34 */
(PID.TID 0000.0001)                 4.850000000000000E+01,      /* J = 35 */
(PID.TID 0000.0001)                 4.950000000000000E+01,      /* J = 36 */
(PID.TID 0000.0001)                 5.050000000000000E+01,      /* J = 37 */
(PID.TID 0000.0001)                 5.150000000000000E+01,      /* J = 38 */
(PID.TID 0000.0001)                 5.250000000000000E+01,      /* J = 39 */
(PID.TID 0000.0001)                 5.350000000000000E+01,      /* J = 40 */
(PID.TID 0000.0001)                 5.450000000000000E+01,      /* J = 41 */
(PID.TID 0000.0001)                 5.550000000000000E+01,      /* J = 42 */
(PID.TID 0000.0001)                 5.650000000000000E+01,      /* J = 43 */
(PID.TID 0000.0001)                 5.750000000000000E+01,      /* J = 44 */
(PID.TID 0000.0001)                 5.850000000000000E+01,      /* J = 45 */
(PID.TID 0000.0001)                 5.950000000000000E+01,      /* J = 46 */
(PID.TID 0000.0001)                 6.050000000000000E+01,      /* J = 47 */
(PID.TID 0000.0001)                 6.150000000000000E+01,      /* J = 48 */
(PID.TID 0000.0001)                 6.250000000000000E+01,      /* J = 49 */
(PID.TID 0000.0001)                 6.350000000000000E+01,      /* J = 50 */
(PID.TID 0000.0001)                 6.450000000000000E+01,      /* J = 51 */
(PID.TID 0000.0001)                 6.550000000000000E+01,      /* J = 52 */
(PID.TID 0000.0001)                 6.650000000000000E+01,      /* J = 53 */
(PID.TID 0000.0001)                 6.750000000000000E+01,      /* J = 54 */
(PID.TID 0000.0001)                 6.850000000000000E+01,      /* J = 55 */
(PID.TID 0000.0001)                 6.950000000000000E+01,      /* J = 56 */
(PID.TID 0000.0001)                 7.050000000000000E+01,      /* J = 57 */
(PID.TID 0000.0001)                 7.150000000000000E+01,      /* J = 58 */
(PID.TID 0000.0001)                 7.250000000000000E+01,      /* J = 59 */
(PID.TID 0000.0001)                 7.350000000000000E+01,      /* J = 60 */
(PID.TID 0000.0001)                 7.450000000000000E+01,      /* J = 61 */
(PID.TID 0000.0001)                 7.550000000000000E+01       /* J = 62 */
(PID.TID 0000.0001)     ;
(PID.TID 0000.0001) rcoord = /* P-point R coordinate (  units of r ) */
(PID.TID 0000.0001)                -5.000000000000000E+00,      /* K =  1 */
(PID.TID 0000.0001)                -1.566500000000000E+01,      /* K =  2 */
(PID.TID 0000.0001)                -2.774500000000000E+01,      /* K =  3 */
(PID.TID 0000.0001)                -4.142500000000000E+01,      /* K =  4 */
(PID.TID 0000.0001)                -5.691499999999999E+01,      /* K =  5 */
(PID.TID 0000.0001)                -7.445499999999998E+01,      /* K =  6 */
(PID.TID 0000.0001)                -9.431999999999999E+01,      /* K =  7 */
(PID.TID 0000.0001)                -1.168200000000000E+02,      /* K =  8 */
(PID.TID 0000.0001)                -1.423050000000000E+02,      /* K =  9 */
(PID.TID 0000.0001)                -1.711650000000000E+02,      /* K = 10 */
(PID.TID 0000.0001)                -2.038500000000000E+02,      /* K = 11 */
(PID.TID 0000.0001)                -2.408700000000000E+02,      /* K = 12 */
(PID.TID 0000.0001)                -2.827950000000000E+02,      /* K = 13 */
(PID.TID 0000.0001)                -3.302750000000000E+02,      /* K = 14 */
(PID.TID 0000.0001)                -3.840500000000000E+02,      /* K = 15 */
(PID.TID 0000.0001)                -4.449550000000000E+02,      /* K = 16 */
(PID.TID 0000.0001)                -5.139300000000001E+02,      /* K = 17 */
(PID.TID 0000.0001)                -5.920450000000001E+02,      /* K = 18 */
(PID.TID 0000.0001)                -6.805150000000001E+02,      /* K = 19 */
(PID.TID 0000.0001)                -7.807100000000000E+02,      /* K = 20 */
(PID.TID 0000.0001)                -8.941850000000001E+02,      /* K = 21 */
(PID.TID 0000.0001)                -1.022700000000000E+03,      /* K = 22 */
(PID.TID 0000.0001)                -1.168245000000000E+03,      /* K = 23 */
(PID.TID 0000.0001)                -1.333080000000000E+03,      /* K = 24 */
(PID.TID 0000.0001)                -1.519765000000000E+03,      /* K = 25 */
(PID.TID 0000.0001)                -1.731195000000000E+03,      /* K = 26 */
(PID.TID 0000.0001)                -1.970650000000000E+03,      /* K = 27 */
(PID.TID 0000.0001)                -2.241845000000000E+03,      /* K = 28 */
(PID.TID 0000.0001)                -2.548985000000000E+03,      /* K = 29 */
(PID.TID 0000.0001)                -2.896835000000000E+03,      /* K = 30 */
(PID.TID 0000.0001)                -3.290785000000000E+03       /* K = 31 */
(PID.TID 0000.0001)     ;
(PID.TID 0000.0001) rF =   /* W-Interf. R coordinate (  units of r ) */
(PID.TID 0000.0001)                 0.000000000000000E+00,      /* K =  1 */
(PID.TID 0000.0001)                -1.000000000000000E+01,      /* K =  2 */
(PID.TID 0000.0001)                -2.133000000000000E+01,      /* K =  3 */
(PID.TID 0000.0001)                -3.416000000000000E+01,      /* K =  4 */
(PID.TID 0000.0001)                -4.869000000000000E+01,      /* K =  5 */
(PID.TID 0000.0001)                -6.514000000000000E+01,      /* K =  6 */
(PID.TID 0000.0001)                -8.377000000000000E+01,      /* K =  7 */
(PID.TID 0000.0001)                -1.048700000000000E+02,      /* K =  8 */
(PID.TID 0000.0001)                -1.287700000000000E+02,      /* K =  9 */
(PID.TID 0000.0001)                -1.558400000000000E+02,      /* K = 10 */
(PID.TID 0000.0001)                -1.864900000000000E+02,      /* K = 11 */
(PID.TID 0000.0001)                -2.212100000000000E+02,      /* K = 12 */
(PID.TID 0000.0001)                -2.605300000000000E+02,      /* K = 13 */
(PID.TID 0000.0001)                -3.050600000000001E+02,      /* K = 14 */
(PID.TID 0000.0001)                -3.554900000000001E+02,      /* K = 15 */
(PID.TID 0000.0001)                -4.126100000000001E+02,      /* K = 16 */
(PID.TID 0000.0001)                -4.773000000000001E+02,      /* K = 17 */
(PID.TID 0000.0001)                -5.505600000000001E+02,      /* K = 18 */
(PID.TID 0000.0001)                -6.335300000000001E+02,      /* K = 19 */
(PID.TID 0000.0001)                -7.275000000000001E+02,      /* K = 20 */
(PID.TID 0000.0001)                -8.339200000000001E+02,      /* K = 21 */
(PID.TID 0000.0001)                -9.544500000000000E+02,      /* K = 22 */
(PID.TID 0000.0001)                -1.090950000000000E+03,      /* K = 23 */
(PID.TID 0000.0001)                -1.245540000000000E+03,      /* K = 24 */
(PID.TID 0000.0001)                -1.420620000000000E+03,      /* K = 25 */
(PID.TID 0000.0001)                -1.618910000000000E+03,      /* K = 26 */
(PID.TID 0000.0001)                -1.843480000000000E+03,      /* K = 27 */
(PID.TID 0000.0001)                -2.097820000000000E+03,      /* K = 28 */
(PID.TID 0000.0001)                -2.385870000000000E+03,      /* K = 29 */
(PID.TID 0000.0001)                -2.712100000000000E+03,      /* K = 30 */
(PID.TID 0000.0001)                -3.081570000000000E+03,      /* K = 31 */
(PID.TID 0000.0001)                -3.500000000000000E+03       /* K = 32 */
(PID.TID 0000.0001)     ;
(PID.TID 0000.0001) deepFacC = /* deep-model grid factor @ cell-Center (-) */
(PID.TID 0000.0001)    31 @  1.000000000000000E+00              /* K =  1: 31 */
(PID.TID 0000.0001)     ;
(PID.TID 0000.0001) deepFacF = /* deep-model grid factor @ W-Interface (-) */
(PID.TID 0000.0001)    32 @  1.000000000000000E+00              /* K =  1: 32 */
(PID.TID 0000.0001)     ;
(PID.TID 0000.0001) rotateGrid = /* use rotated grid ( True/False ) */
(PID.TID 0000.0001)                   F
(PID.TID 0000.0001)     ;
(PID.TID 0000.0001) phiEuler = /* Euler angle, rotation about original z-coordinate [rad] */
(PID.TID 0000.0001)                 0.000000000000000E+00
(PID.TID 0000.0001)     ;
(PID.TID 0000.0001) thetaEuler = /* Euler angle, rotation about new x-coordinate [rad] */
(PID.TID 0000.0001)                 0.000000000000000E+00
(PID.TID 0000.0001)     ;
(PID.TID 0000.0001) psiEuler = /* Euler angle, rotation about new z-coordinate [rad] */
(PID.TID 0000.0001)                 0.000000000000000E+00
(PID.TID 0000.0001)     ;
(PID.TID 0000.0001) dxF =  /* dxF(:,1,:,1) ( units: m ) */
(PID.TID 0000.0001)    62 @  1.076362084889763E+05              /* I =  1: 62 */
(PID.TID 0000.0001)     ;
(PID.TID 0000.0001) dxF =  /* dxF(1,:,1,:) ( units: m ) */
(PID.TID 0000.0001)                 1.076362084889763E+05,      /* J =  1 */
(PID.TID 0000.0001)                 1.071339990328148E+05,      /* J =  2 */
(PID.TID 0000.0001)                 1.065991555227175E+05,      /* J =  3 */
(PID.TID 0000.0001)                 1.060318408771987E+05,      /* J =  4 */
(PID.TID 0000.0001)                 1.054322279057952E+05,      /* J =  5 */
(PID.TID 0000.0001)                 1.048004992564268E+05,      /* J =  6 */
(PID.TID 0000.0001)                 1.041368473597596E+05,      /* J =  7 */
(PID.TID 0000.0001)                 1.034414743705903E+05,      /* J =  8 */
(PID.TID 0000.0001)                 1.027145921062676E+05,      /* J =  9 */
(PID.TID 0000.0001)                 1.019564219821708E+05,      /* J = 10 */
(PID.TID 0000.0001)                 1.011671949442642E+05,      /* J = 11 */
(PID.TID 0000.0001)                 1.003471513987490E+05,      /* J = 12 */
(PID.TID 0000.0001)                 9.949654113883297E+04,      /* J = 13 */
(PID.TID 0000.0001)                 9.861562326864146E+04,      /* J = 14 */
(PID.TID 0000.0001)                 9.770466612429130E+04,      /* J = 15 */
(PID.TID 0000.0001)                 9.676394719215337E+04,      /* J = 16 */
(PID.TID 0000.0001)                 9.579375302432729E+04,      /* J = 17 */
(PID.TID 0000.0001)                 9.479437915135507E+04,      /* J = 18 */
(PID.TID 0000.0001)                 9.376612999219958E+04,      /* J = 19 */
(PID.TID 0000.0001)                 9.270931876151556E+04,      /* J = 20 */
(PID.TID 0000.0001)                 9.162426737424145E+04,      /* J = 21 */
(PID.TID 0000.0001)                 9.051130634754094E+04,      /* J = 22 */
(PID.TID 0000.0001)                 8.937077470012424E+04,      /* J = 23 */
(PID.TID 0000.0001)                 8.820301984897976E+04,      /* J = 24 */
(PID.TID 0000.0001)                 8.700839750354746E+04,      /* J = 25 */
(PID.TID 0000.0001)                 8.578727155736629E+04,      /* J = 26 */
(PID.TID 0000.0001)                 8.454001397722879E+04,      /* J = 27 */
(PID.TID 0000.0001)                 8.326700468987631E+04,      /* J = 28 */
(PID.TID 0000.0001)                 8.196863146626971E+04,      /* J = 29 */
(PID.TID 0000.0001)                 8.064528980347053E+04,      /* J = 30 */
(PID.TID 0000.0001)                 7.929738280416874E+04,      /* J = 31 */
(PID.TID 0000.0001)                 7.792532105389380E+04,      /* J = 32 */
(PID.TID 0000.0001)                 7.652952249594631E+04,      /* J = 33 */
(PID.TID 0000.0001)                 7.511041230408842E+04,      /* J = 34 */
(PID.TID 0000.0001)                 7.366842275303182E+04,      /* J = 35 */
(PID.TID 0000.0001)                 7.220399308676260E+04,      /* J = 36 */
(PID.TID 0000.0001)                 7.071756938474336E+04,      /* J = 37 */
(PID.TID 0000.0001)                 6.920960442603305E+04,      /* J = 38 */
(PID.TID 0000.0001)                 6.768055755136609E+04,      /* J = 39 */
(PID.TID 0000.0001)                 6.613089452323270E+04,      /* J = 40 */
(PID.TID 0000.0001)                 6.456108738400316E+04,      /* J = 41 */
(PID.TID 0000.0001)                 6.297161431213917E+04,      /* J = 42 */
(PID.TID 0000.0001)                 6.136295947653597E+04,      /* J = 43 */
(PID.TID 0000.0001)                 5.973561288903989E+04,      /* J = 44 */
(PID.TID 0000.0001)                 5.809007025518592E+04,      /* J = 45 */
(PID.TID 0000.0001)                 5.642683282320108E+04,      /* J = 46 */
(PID.TID 0000.0001)                 5.474640723131929E+04,      /* J = 47 */
(PID.TID 0000.0001)                 5.304930535345447E+04,      /* J = 48 */
(PID.TID 0000.0001)                 5.133604414327884E+04,      /* J = 49 */
(PID.TID 0000.0001)                 4.960714547675374E+04,      /* J = 50 */
(PID.TID 0000.0001)                 4.786313599316124E+04,      /* J = 51 */
(PID.TID 0000.0001)                 4.610454693468459E+04,      /* J = 52 */
(PID.TID 0000.0001)                 4.433191398458685E+04,      /* J = 53 */
(PID.TID 0000.0001)                 4.254577710403652E+04,      /* J = 54 */
(PID.TID 0000.0001)                 4.074668036763009E+04,      /* J = 55 */
(PID.TID 0000.0001)                 3.893517179766173E+04,      /* J = 56 */
(PID.TID 0000.0001)                 3.711180319719033E+04,      /* J = 57 */
(PID.TID 0000.0001)                 3.527712998195496E+04,      /* J = 58 */
(PID.TID 0000.0001)                 3.343171101118984E+04,      /* J = 59 */
(PID.TID 0000.0001)                 3.157610841739049E+04,      /* J = 60 */
(PID.TID 0000.0001)                 2.971088743508254E+04,      /* J = 61 */
(PID.TID 0000.0001)                 2.783661622864603E+04       /* J = 62 */
(PID.TID 0000.0001)     ;
(PID.TID 0000.0001) dyF =  /* dyF(:,1,:,1) ( units: m ) */
(PID.TID 0000.0001)    62 @  1.111774733520388E+05              /* I =  1: 62 */
(PID.TID 0000.0001)     ;
(PID.TID 0000.0001) dyF =  /* dyF(1,:,1,:) ( units: m ) */
(PID.TID 0000.0001)    62 @  1.111774733520388E+05              /* J =  1: 62 */
(PID.TID 0000.0001)     ;
(PID.TID 0000.0001) dxG =  /* dxG(:,1,:,1) ( units: m ) */
(PID.TID 0000.0001)    62 @  1.078750272516468E+05              /* I =  1: 62 */
(PID.TID 0000.0001)     ;
(PID.TID 0000.0001) dxG =  /* dxG(1,:,1,:) ( units: m ) */
(PID.TID 0000.0001)                 1.078750272516468E+05,      /* J =  1 */
(PID.TID 0000.0001)                 1.073891928122990E+05,      /* J =  2 */
(PID.TID 0000.0001)                 1.068706465845181E+05,      /* J =  3 */
(PID.TID 0000.0001)                 1.063195465225083E+05,      /* J =  4 */
(PID.TID 0000.0001)                 1.057360604966873E+05,      /* J =  5 */
(PID.TID 0000.0001)                 1.051203662425507E+05,      /* J =  6 */
(PID.TID 0000.0001)                 1.044726513065328E+05,      /* J =  7 */
(PID.TID 0000.0001)                 1.037931129888776E+05,      /* J =  8 */
(PID.TID 0000.0001)                 1.030819582835396E+05,      /* J =  9 */
(PID.TID 0000.0001)                 1.023394038151311E+05,      /* J = 10 */
(PID.TID 0000.0001)                 1.015656757729363E+05,      /* J = 11 */
(PID.TID 0000.0001)                 1.007610098420124E+05,      /* J = 12 */
(PID.TID 0000.0001)                 9.992565113139673E+04,      /* J = 13 */
(PID.TID 0000.0001)                 9.905985409944496E+04,      /* J = 14 */
(PID.TID 0000.0001)                 9.816388247632013E+04,      /* J = 15 */
(PID.TID 0000.0001)                 9.723800918365814E+04,      /* J = 16 */
(PID.TID 0000.0001)                 9.628251625143306E+04,      /* J = 17 */
(PID.TID 0000.0001)                 9.529769473204810E+04,      /* J = 18 */
(PID.TID 0000.0001)                 9.428384461167829E+04,      /* J = 19 */
(PID.TID 0000.0001)                 9.324127471889161E+04,      /* J = 20 */
(PID.TID 0000.0001)                 9.217030263057708E+04,      /* J = 21 */
(PID.TID 0000.0001)                 9.107125457520749E+04,      /* J = 22 */
(PID.TID 0000.0001)                 8.994446533346726E+04,      /* J = 23 */
(PID.TID 0000.0001)                 8.879027813627482E+04,      /* J = 24 */
(PID.TID 0000.0001)                 8.760904456023136E+04,      /* J = 25 */
(PID.TID 0000.0001)                 8.640112442052698E+04,      /* J = 26 */
(PID.TID 0000.0001)                 8.516688566133760E+04,      /* J = 27 */
(PID.TID 0000.0001)                 8.390670424374563E+04,      /* J = 28 */
(PID.TID 0000.0001)                 8.262096403121852E+04,      /* J = 29 */
(PID.TID 0000.0001)                 8.131005667268026E+04,      /* J = 30 */
(PID.TID 0000.0001)                 7.997438148321131E+04,      /* J = 31 */
(PID.TID 0000.0001)                 7.861434532241333E+04,      /* J = 32 */
(PID.TID 0000.0001)                 7.723036247047588E+04,      /* J = 33 */
(PID.TID 0000.0001)                 7.582285450198260E+04,      /* J = 34 */
(PID.TID 0000.0001)                 7.439225015749552E+04,      /* J = 35 */
(PID.TID 0000.0001)                 7.293898521295658E+04,      /* J = 36 */
(PID.TID 0000.0001)                 7.146350234694594E+04,      /* J = 37 */
(PID.TID 0000.0001)                 6.996625100583793E+04,      /* J = 38 */
(PID.TID 0000.0001)                 6.844768726689526E+04,      /* J = 39 */
(PID.TID 0000.0001)                 6.690827369934345E+04,      /* J = 40 */
(PID.TID 0000.0001)                 6.534847922346782E+04,      /* J = 41 */
(PID.TID 0000.0001)                 6.376877896777580E+04,      /* J = 42 */
(PID.TID 0000.0001)                 6.216965412426815E+04,      /* J = 43 */
(PID.TID 0000.0001)                 6.055159180186329E+04,      /* J = 44 */
(PID.TID 0000.0001)                 5.891508487801914E+04,      /* J = 45 */
(PID.TID 0000.0001)                 5.726063184859791E+04,      /* J = 46 */
(PID.TID 0000.0001)                 5.558873667601941E+04,      /* J = 47 */
(PID.TID 0000.0001)                 5.389990863574919E+04,      /* J = 48 */
(PID.TID 0000.0001)                 5.219466216116838E+04,      /* J = 49 */
(PID.TID 0000.0001)                 5.047351668687224E+04,      /* J = 50 */
(PID.TID 0000.0001)                 4.873699649044534E+04,      /* J = 51 */
(PID.TID 0000.0001)                 4.698563053276157E+04,      /* J = 52 */
(PID.TID 0000.0001)                 4.521995229685750E+04,      /* J = 53 */
(PID.TID 0000.0001)                 4.344049962542827E+04,      /* J = 54 */
(PID.TID 0000.0001)                 4.164781455699559E+04,      /* J = 55 */
(PID.TID 0000.0001)                 3.984244316079742E+04,      /* J = 56 */
(PID.TID 0000.0001)                 3.802493537045004E+04,      /* J = 57 */
(PID.TID 0000.0001)                 3.619584481643300E+04,      /* J = 58 */
(PID.TID 0000.0001)                 3.435572865744785E+04,      /* J = 59 */
(PID.TID 0000.0001)                 3.250514741070222E+04,      /* J = 60 */
(PID.TID 0000.0001)                 3.064466478117086E+04,      /* J = 61 */
(PID.TID 0000.0001)                 2.877484748988563E+04       /* J = 62 */
(PID.TID 0000.0001)     ;
(PID.TID 0000.0001) dyG =  /* dyG(:,1,:,1) ( units: m ) */
(PID.TID 0000.0001)    62 @  1.111774733520388E+05              /* I =  1: 62 */
(PID.TID 0000.0001)     ;
(PID.TID 0000.0001) dyG =  /* dyG(1,:,1,:) ( units: m ) */
(PID.TID 0000.0001)    62 @  1.111774733520388E+05              /* J =  1: 62 */
(PID.TID 0000.0001)     ;
(PID.TID 0000.0001) dxC =  /* dxC(:,1,:,1) ( units: m ) */
(PID.TID 0000.0001)    62 @  1.076362084889763E+05              /* I =  1: 62 */
(PID.TID 0000.0001)     ;
(PID.TID 0000.0001) dxC =  /* dxC(1,:,1,:) ( units: m ) */
(PID.TID 0000.0001)                 1.076362084889763E+05,      /* J =  1 */
(PID.TID 0000.0001)                 1.071339990328148E+05,      /* J =  2 */
(PID.TID 0000.0001)                 1.065991555227175E+05,      /* J =  3 */
(PID.TID 0000.0001)                 1.060318408771987E+05,      /* J =  4 */
(PID.TID 0000.0001)                 1.054322279057952E+05,      /* J =  5 */
(PID.TID 0000.0001)                 1.048004992564268E+05,      /* J =  6 */
(PID.TID 0000.0001)                 1.041368473597596E+05,      /* J =  7 */
(PID.TID 0000.0001)                 1.034414743705903E+05,      /* J =  8 */
(PID.TID 0000.0001)                 1.027145921062676E+05,      /* J =  9 */
(PID.TID 0000.0001)                 1.019564219821708E+05,      /* J = 10 */
(PID.TID 0000.0001)                 1.011671949442642E+05,      /* J = 11 */
(PID.TID 0000.0001)                 1.003471513987490E+05,      /* J = 12 */
(PID.TID 0000.0001)                 9.949654113883297E+04,      /* J = 13 */
(PID.TID 0000.0001)                 9.861562326864146E+04,      /* J = 14 */
(PID.TID 0000.0001)                 9.770466612429130E+04,      /* J = 15 */
(PID.TID 0000.0001)                 9.676394719215337E+04,      /* J = 16 */
(PID.TID 0000.0001)                 9.579375302432729E+04,      /* J = 17 */
(PID.TID 0000.0001)                 9.479437915135507E+04,      /* J = 18 */
(PID.TID 0000.0001)                 9.376612999219958E+04,      /* J = 19 */
(PID.TID 0000.0001)                 9.270931876151556E+04,      /* J = 20 */
(PID.TID 0000.0001)                 9.162426737424145E+04,      /* J = 21 */
(PID.TID 0000.0001)                 9.051130634754094E+04,      /* J = 22 */
(PID.TID 0000.0001)                 8.937077470012424E+04,      /* J = 23 */
(PID.TID 0000.0001)                 8.820301984897976E+04,      /* J = 24 */
(PID.TID 0000.0001)                 8.700839750354746E+04,      /* J = 25 */
(PID.TID 0000.0001)                 8.578727155736629E+04,      /* J = 26 */
(PID.TID 0000.0001)                 8.454001397722879E+04,      /* J = 27 */
(PID.TID 0000.0001)                 8.326700468987631E+04,      /* J = 28 */
(PID.TID 0000.0001)                 8.196863146626971E+04,      /* J = 29 */
(PID.TID 0000.0001)                 8.064528980347053E+04,      /* J = 30 */
(PID.TID 0000.0001)                 7.929738280416874E+04,      /* J = 31 */
(PID.TID 0000.0001)                 7.792532105389380E+04,      /* J = 32 */
(PID.TID 0000.0001)                 7.652952249594631E+04,      /* J = 33 */
(PID.TID 0000.0001)                 7.511041230408842E+04,      /* J = 34 */
(PID.TID 0000.0001)                 7.366842275303182E+04,      /* J = 35 */
(PID.TID 0000.0001)                 7.220399308676260E+04,      /* J = 36 */
(PID.TID 0000.0001)                 7.071756938474336E+04,      /* J = 37 */
(PID.TID 0000.0001)                 6.920960442603305E+04,      /* J = 38 */
(PID.TID 0000.0001)                 6.768055755136609E+04,      /* J = 39 */
(PID.TID 0000.0001)                 6.613089452323270E+04,      /* J = 40 */
(PID.TID 0000.0001)                 6.456108738400316E+04,      /* J = 41 */
(PID.TID 0000.0001)                 6.297161431213917E+04,      /* J = 42 */
(PID.TID 0000.0001)                 6.136295947653597E+04,      /* J = 43 */
(PID.TID 0000.0001)                 5.973561288903989E+04,      /* J = 44 */
(PID.TID 0000.0001)                 5.809007025518592E+04,      /* J = 45 */
(PID.TID 0000.0001)                 5.642683282320108E+04,      /* J = 46 */
(PID.TID 0000.0001)                 5.474640723131929E+04,      /* J = 47 */
(PID.TID 0000.0001)                 5.304930535345447E+04,      /* J = 48 */
(PID.TID 0000.0001)                 5.133604414327884E+04,      /* J = 49 */
(PID.TID 0000.0001)                 4.960714547675374E+04,      /* J = 50 */
(PID.TID 0000.0001)                 4.786313599316124E+04,      /* J = 51 */
(PID.TID 0000.0001)                 4.610454693468459E+04,      /* J = 52 */
(PID.TID 0000.0001)                 4.433191398458685E+04,      /* J = 53 */
(PID.TID 0000.0001)                 4.254577710403652E+04,      /* J = 54 */
(PID.TID 0000.0001)                 4.074668036763009E+04,      /* J = 55 */
(PID.TID 0000.0001)                 3.893517179766173E+04,      /* J = 56 */
(PID.TID 0000.0001)                 3.711180319719033E+04,      /* J = 57 */
(PID.TID 0000.0001)                 3.527712998195496E+04,      /* J = 58 */
(PID.TID 0000.0001)                 3.343171101118984E+04,      /* J = 59 */
(PID.TID 0000.0001)                 3.157610841739049E+04,      /* J = 60 */
(PID.TID 0000.0001)                 2.971088743508254E+04,      /* J = 61 */
(PID.TID 0000.0001)                 2.783661622864603E+04       /* J = 62 */
(PID.TID 0000.0001)     ;
(PID.TID 0000.0001) dyC =  /* dyC(:,1,:,1) ( units: m ) */
(PID.TID 0000.0001)    62 @  1.111774733520388E+05              /* I =  1: 62 */
(PID.TID 0000.0001)     ;
(PID.TID 0000.0001) dyC =  /* dyC(1,:,1,:) ( units: m ) */
(PID.TID 0000.0001)    62 @  1.111774733520388E+05              /* J =  1: 62 */
(PID.TID 0000.0001)     ;
(PID.TID 0000.0001) dxV =  /* dxV(:,1,:,1) ( units: m ) */
(PID.TID 0000.0001)    62 @  1.078750272516468E+05              /* I =  1: 62 */
(PID.TID 0000.0001)     ;
(PID.TID 0000.0001) dxV =  /* dxV(1,:,1,:) ( units: m ) */
(PID.TID 0000.0001)                 1.078750272516468E+05,      /* J =  1 */
(PID.TID 0000.0001)                 1.073891928122990E+05,      /* J =  2 */
(PID.TID 0000.0001)                 1.068706465845181E+05,      /* J =  3 */
(PID.TID 0000.0001)                 1.063195465225083E+05,      /* J =  4 */
(PID.TID 0000.0001)                 1.057360604966873E+05,      /* J =  5 */
(PID.TID 0000.0001)                 1.051203662425507E+05,      /* J =  6 */
(PID.TID 0000.0001)                 1.044726513065328E+05,      /* J =  7 */
(PID.TID 0000.0001)                 1.037931129888776E+05,      /* J =  8 */
(PID.TID 0000.0001)                 1.030819582835396E+05,      /* J =  9 */
(PID.TID 0000.0001)                 1.023394038151311E+05,      /* J = 10 */
(PID.TID 0000.0001)                 1.015656757729363E+05,      /* J = 11 */
(PID.TID 0000.0001)                 1.007610098420124E+05,      /* J = 12 */
(PID.TID 0000.0001)                 9.992565113139673E+04,      /* J = 13 */
(PID.TID 0000.0001)                 9.905985409944496E+04,      /* J = 14 */
(PID.TID 0000.0001)                 9.816388247632013E+04,      /* J = 15 */
(PID.TID 0000.0001)                 9.723800918365814E+04,      /* J = 16 */
(PID.TID 0000.0001)                 9.628251625143306E+04,      /* J = 17 */
(PID.TID 0000.0001)                 9.529769473204810E+04,      /* J = 18 */
(PID.TID 0000.0001)                 9.428384461167829E+04,      /* J = 19 */
(PID.TID 0000.0001)                 9.324127471889161E+04,      /* J = 20 */
(PID.TID 0000.0001)                 9.217030263057708E+04,      /* J = 21 */
(PID.TID 0000.0001)                 9.107125457520749E+04,      /* J = 22 */
(PID.TID 0000.0001)                 8.994446533346726E+04,      /* J = 23 */
(PID.TID 0000.0001)                 8.879027813627482E+04,      /* J = 24 */
(PID.TID 0000.0001)                 8.760904456023136E+04,      /* J = 25 */
(PID.TID 0000.0001)                 8.640112442052698E+04,      /* J = 26 */
(PID.TID 0000.0001)                 8.516688566133760E+04,      /* J = 27 */
(PID.TID 0000.0001)                 8.390670424374563E+04,      /* J = 28 */
(PID.TID 0000.0001)                 8.262096403121852E+04,      /* J = 29 */
(PID.TID 0000.0001)                 8.131005667268026E+04,      /* J = 30 */
(PID.TID 0000.0001)                 7.997438148321131E+04,      /* J = 31 */
(PID.TID 0000.0001)                 7.861434532241333E+04,      /* J = 32 */
(PID.TID 0000.0001)                 7.723036247047588E+04,      /* J = 33 */
(PID.TID 0000.0001)                 7.582285450198260E+04,      /* J = 34 */
(PID.TID 0000.0001)                 7.439225015749552E+04,      /* J = 35 */
(PID.TID 0000.0001)                 7.293898521295658E+04,      /* J = 36 */
(PID.TID 0000.0001)                 7.146350234694594E+04,      /* J = 37 */
(PID.TID 0000.0001)                 6.996625100583793E+04,      /* J = 38 */
(PID.TID 0000.0001)                 6.844768726689526E+04,      /* J = 39 */
(PID.TID 0000.0001)                 6.690827369934345E+04,      /* J = 40 */
(PID.TID 0000.0001)                 6.534847922346782E+04,      /* J = 41 */
(PID.TID 0000.0001)                 6.376877896777580E+04,      /* J = 42 */
(PID.TID 0000.0001)                 6.216965412426815E+04,      /* J = 43 */
(PID.TID 0000.0001)                 6.055159180186329E+04,      /* J = 44 */
(PID.TID 0000.0001)                 5.891508487801914E+04,      /* J = 45 */
(PID.TID 0000.0001)                 5.726063184859791E+04,      /* J = 46 */
(PID.TID 0000.0001)                 5.558873667601941E+04,      /* J = 47 */
(PID.TID 0000.0001)                 5.389990863574919E+04,      /* J = 48 */
(PID.TID 0000.0001)                 5.219466216116838E+04,      /* J = 49 */
(PID.TID 0000.0001)                 5.047351668687224E+04,      /* J = 50 */
(PID.TID 0000.0001)                 4.873699649044534E+04,      /* J = 51 */
(PID.TID 0000.0001)                 4.698563053276157E+04,      /* J = 52 */
(PID.TID 0000.0001)                 4.521995229685750E+04,      /* J = 53 */
(PID.TID 0000.0001)                 4.344049962542827E+04,      /* J = 54 */
(PID.TID 0000.0001)                 4.164781455699559E+04,      /* J = 55 */
(PID.TID 0000.0001)                 3.984244316079742E+04,      /* J = 56 */
(PID.TID 0000.0001)                 3.802493537045004E+04,      /* J = 57 */
(PID.TID 0000.0001)                 3.619584481643300E+04,      /* J = 58 */
(PID.TID 0000.0001)                 3.435572865744785E+04,      /* J = 59 */
(PID.TID 0000.0001)                 3.250514741070222E+04,      /* J = 60 */
(PID.TID 0000.0001)                 3.064466478117086E+04,      /* J = 61 */
(PID.TID 0000.0001)                 2.877484748988563E+04       /* J = 62 */
(PID.TID 0000.0001)     ;
(PID.TID 0000.0001) dyU =  /* dyU(:,1,:,1) ( units: m ) */
(PID.TID 0000.0001)    62 @  1.111774733520388E+05              /* I =  1: 62 */
(PID.TID 0000.0001)     ;
(PID.TID 0000.0001) dyU =  /* dyU(1,:,1,:) ( units: m ) */
(PID.TID 0000.0001)    62 @  1.111774733520388E+05              /* J =  1: 62 */
(PID.TID 0000.0001)     ;
(PID.TID 0000.0001) rA  =  /* rA (:,1,:,1) ( units: m^2 ) */
(PID.TID 0000.0001)    62 @  1.196656981524733E+10              /* I =  1: 62 */
(PID.TID 0000.0001)     ;
(PID.TID 0000.0001) rA  =  /* rA (1,:,1,:) ( units: m^2 ) */
(PID.TID 0000.0001)                 1.196656981524733E+10,      /* J =  1 */
(PID.TID 0000.0001)                 1.191073614548694E+10,      /* J =  2 */
(PID.TID 0000.0001)                 1.185127435011474E+10,      /* J =  3 */
(PID.TID 0000.0001)                 1.178820254176960E+10,      /* J =  4 */
(PID.TID 0000.0001)                 1.172153993273539E+10,      /* J =  5 */
(PID.TID 0000.0001)                 1.165130682908854E+10,      /* J =  6 */
(PID.TID 0000.0001)                 1.157752462451282E+10,      /* J =  7 */
(PID.TID 0000.0001)                 1.150021579378240E+10,      /* J =  8 */
(PID.TID 0000.0001)                 1.141940388591624E+10,      /* J =  9 */
(PID.TID 0000.0001)                 1.133511351700411E+10,      /* J = 10 */
(PID.TID 0000.0001)                 1.124737036270893E+10,      /* J = 11 */
(PID.TID 0000.0001)                 1.115620115044562E+10,      /* J = 12 */
(PID.TID 0000.0001)                 1.106163365123932E+10,      /* J = 13 */
(PID.TID 0000.0001)                 1.096369667126643E+10,      /* J = 14 */
(PID.TID 0000.0001)                 1.086242004307971E+10,      /* J = 15 */
(PID.TID 0000.0001)                 1.075783461652121E+10,      /* J = 16 */
(PID.TID 0000.0001)                 1.064997224932518E+10,      /* J = 17 */
(PID.TID 0000.0001)                 1.053886579741327E+10,      /* J = 18 */
(PID.TID 0000.0001)                 1.042454910488719E+10,      /* J = 19 */
(PID.TID 0000.0001)                 1.030705699371901E+10,      /* J = 20 */
(PID.TID 0000.0001)                 1.018642525314361E+10,      /* J = 21 */
(PID.TID 0000.0001)                 1.006269062875826E+10,      /* J = 22 */
(PID.TID 0000.0001)                 9.935890811327726E+09,      /* J = 23 */
(PID.TID 0000.0001)                 9.806064425305017E+09,      /* J = 24 */
(PID.TID 0000.0001)                 9.673251017064857E+09,      /* J = 25 */
(PID.TID 0000.0001)                 9.537491042857967E+09,      /* J = 26 */
(PID.TID 0000.0001)                 9.398825856487764E+09,      /* J = 27 */
(PID.TID 0000.0001)                 9.257297696713127E+09,      /* J = 28 */
(PID.TID 0000.0001)                 9.112949674382658E+09,      /* J = 29 */
(PID.TID 0000.0001)                 8.965825759302095E+09,      /* J = 30 */
(PID.TID 0000.0001)                 8.815970766841616E+09,      /* J = 31 */
(PID.TID 0000.0001)                 8.663430344283134E+09,      /* J = 32 */
(PID.TID 0000.0001)                 8.508250956917325E+09,      /* J = 33 */
(PID.TID 0000.0001)                 8.350479873888739E+09,      /* J = 34 */
(PID.TID 0000.0001)                 8.190165153797634E+09,      /* J = 35 */
(PID.TID 0000.0001)                 8.027355630060758E+09,      /* J = 36 */
(PID.TID 0000.0001)                 7.862100896036314E+09,      /* J = 37 */
(PID.TID 0000.0001)                 7.694451289916993E+09,      /* J = 38 */
(PID.TID 0000.0001)                 7.524457879396867E+09,      /* J = 39 */
(PID.TID 0000.0001)                 7.352172446115701E+09,      /* J = 40 */
(PID.TID 0000.0001)                 7.177647469885461E+09,      /* J = 41 */
(PID.TID 0000.0001)                 7.000936112704228E+09,      /* J = 42 */
(PID.TID 0000.0001)                 6.822092202563635E+09,      /* J = 43 */
(PID.TID 0000.0001)                 6.641170217051002E+09,      /* J = 44 */
(PID.TID 0000.0001)                 6.458225266755869E+09,      /* J = 45 */
(PID.TID 0000.0001)                 6.273313078481994E+09,      /* J = 46 */
(PID.TID 0000.0001)                 6.086489978273873E+09,      /* J = 47 */
(PID.TID 0000.0001)                 5.897812874256844E+09,      /* J = 48 */
(PID.TID 0000.0001)                 5.707339239305150E+09,      /* J = 49 */
(PID.TID 0000.0001)                 5.515127093532865E+09,      /* J = 50 */
(PID.TID 0000.0001)                 5.321234986621662E+09,      /* J = 51 */
(PID.TID 0000.0001)                 5.125721979985523E+09,      /* J = 52 */
(PID.TID 0000.0001)                 4.928647628780381E+09,      /* J = 53 */
(PID.TID 0000.0001)                 4.730071963762583E+09,      /* J = 54 */
(PID.TID 0000.0001)                 4.530055473003219E+09,      /* J = 55 */
(PID.TID 0000.0001)                 4.328659083463440E+09,      /* J = 56 */
(PID.TID 0000.0001)                 4.125944142434158E+09,      /* J = 57 */
(PID.TID 0000.0001)                 3.921972398849850E+09,      /* J = 58 */
(PID.TID 0000.0001)                 3.716805984480110E+09,      /* J = 59 */
(PID.TID 0000.0001)                 3.510507395001996E+09,      /* J = 60 */
(PID.TID 0000.0001)                 3.303139470964198E+09,      /* J = 61 */
(PID.TID 0000.0001)                 3.094765378645439E+09       /* J = 62 */
(PID.TID 0000.0001)     ;
(PID.TID 0000.0001) rAw =  /* rAw(:,1,:,1) ( units: m^2 ) */
(PID.TID 0000.0001)    62 @  1.196656981524733E+10              /* I =  1: 62 */
(PID.TID 0000.0001)     ;
(PID.TID 0000.0001) rAw =  /* rAw(1,:,1,:) ( units: m^2 ) */
(PID.TID 0000.0001)                 1.196656981524733E+10,      /* J =  1 */
(PID.TID 0000.0001)                 1.191073614548694E+10,      /* J =  2 */
(PID.TID 0000.0001)                 1.185127435011474E+10,      /* J =  3 */
(PID.TID 0000.0001)                 1.178820254176960E+10,      /* J =  4 */
(PID.TID 0000.0001)                 1.172153993273539E+10,      /* J =  5 */
(PID.TID 0000.0001)                 1.165130682908854E+10,      /* J =  6 */
(PID.TID 0000.0001)                 1.157752462451282E+10,      /* J =  7 */
(PID.TID 0000.0001)                 1.150021579378240E+10,      /* J =  8 */
(PID.TID 0000.0001)                 1.141940388591624E+10,      /* J =  9 */
(PID.TID 0000.0001)                 1.133511351700411E+10,      /* J = 10 */
(PID.TID 0000.0001)                 1.124737036270893E+10,      /* J = 11 */
(PID.TID 0000.0001)                 1.115620115044562E+10,      /* J = 12 */
(PID.TID 0000.0001)                 1.106163365123932E+10,      /* J = 13 */
(PID.TID 0000.0001)                 1.096369667126643E+10,      /* J = 14 */
(PID.TID 0000.0001)                 1.086242004307971E+10,      /* J = 15 */
(PID.TID 0000.0001)                 1.075783461652121E+10,      /* J = 16 */
(PID.TID 0000.0001)                 1.064997224932518E+10,      /* J = 17 */
(PID.TID 0000.0001)                 1.053886579741327E+10,      /* J = 18 */
(PID.TID 0000.0001)                 1.042454910488719E+10,      /* J = 19 */
(PID.TID 0000.0001)                 1.030705699371901E+10,      /* J = 20 */
(PID.TID 0000.0001)                 1.018642525314361E+10,      /* J = 21 */
(PID.TID 0000.0001)                 1.006269062875826E+10,      /* J = 22 */
(PID.TID 0000.0001)                 9.935890811327726E+09,      /* J = 23 */
(PID.TID 0000.0001)                 9.806064425305017E+09,      /* J = 24 */
(PID.TID 0000.0001)                 9.673251017064857E+09,      /* J = 25 */
(PID.TID 0000.0001)                 9.537491042857967E+09,      /* J = 26 */
(PID.TID 0000.0001)                 9.398825856487764E+09,      /* J = 27 */
(PID.TID 0000.0001)                 9.257297696713127E+09,      /* J = 28 */
(PID.TID 0000.0001)                 9.112949674382658E+09,      /* J = 29 */
(PID.TID 0000.0001)                 8.965825759302095E+09,      /* J = 30 */
(PID.TID 0000.0001)                 8.815970766841616E+09,      /* J = 31 */
(PID.TID 0000.0001)                 8.663430344283134E+09,      /* J = 32 */
(PID.TID 0000.0001)                 8.508250956917325E+09,      /* J = 33 */
(PID.TID 0000.0001)                 8.350479873888739E+09,      /* J = 34 */
(PID.TID 0000.0001)                 8.190165153797634E+09,      /* J = 35 */
(PID.TID 0000.0001)                 8.027355630060758E+09,      /* J = 36 */
(PID.TID 0000.0001)                 7.862100896036314E+09,      /* J = 37 */
(PID.TID 0000.0001)                 7.694451289916993E+09,      /* J = 38 */
(PID.TID 0000.0001)                 7.524457879396867E+09,      /* J = 39 */
(PID.TID 0000.0001)                 7.352172446115701E+09,      /* J = 40 */
(PID.TID 0000.0001)                 7.177647469885461E+09,      /* J = 41 */
(PID.TID 0000.0001)                 7.000936112704228E+09,      /* J = 42 */
(PID.TID 0000.0001)                 6.822092202563635E+09,      /* J = 43 */
(PID.TID 0000.0001)                 6.641170217051002E+09,      /* J = 44 */
(PID.TID 0000.0001)                 6.458225266755869E+09,      /* J = 45 */
(PID.TID 0000.0001)                 6.273313078481994E+09,      /* J = 46 */
(PID.TID 0000.0001)                 6.086489978273873E+09,      /* J = 47 */
(PID.TID 0000.0001)                 5.897812874256844E+09,      /* J = 48 */
(PID.TID 0000.0001)                 5.707339239305150E+09,      /* J = 49 */
(PID.TID 0000.0001)                 5.515127093532865E+09,      /* J = 50 */
(PID.TID 0000.0001)                 5.321234986621662E+09,      /* J = 51 */
(PID.TID 0000.0001)                 5.125721979985523E+09,      /* J = 52 */
(PID.TID 0000.0001)                 4.928647628780381E+09,      /* J = 53 */
(PID.TID 0000.0001)                 4.730071963762583E+09,      /* J = 54 */
(PID.TID 0000.0001)                 4.530055473003219E+09,      /* J = 55 */
(PID.TID 0000.0001)                 4.328659083463440E+09,      /* J = 56 */
(PID.TID 0000.0001)                 4.125944142434158E+09,      /* J = 57 */
(PID.TID 0000.0001)                 3.921972398849850E+09,      /* J = 58 */
(PID.TID 0000.0001)                 3.716805984480110E+09,      /* J = 59 */
(PID.TID 0000.0001)                 3.510507395001996E+09,      /* J = 60 */
(PID.TID 0000.0001)                 3.303139470964198E+09,      /* J = 61 */
(PID.TID 0000.0001)                 3.094765378645439E+09       /* J = 62 */
(PID.TID 0000.0001)     ;
(PID.TID 0000.0001) rAs =  /* rAs(:,1,:,1) ( units: m^2 ) */
(PID.TID 0000.0001)    62 @  1.199312074487231E+10              /* I =  1: 62 */
(PID.TID 0000.0001)     ;
(PID.TID 0000.0001) rAs =  /* rAs(1,:,1,:) ( units: m^2 ) */
(PID.TID 0000.0001)                 1.199312074487231E+10,      /* J =  1 */
(PID.TID 0000.0001)                 1.193910758500046E+10,      /* J =  2 */
(PID.TID 0000.0001)                 1.188145765730164E+10,      /* J =  3 */
(PID.TID 0000.0001)                 1.182018852250200E+10,      /* J =  4 */
(PID.TID 0000.0001)                 1.175531884377377E+10,      /* J =  5 */
(PID.TID 0000.0001)                 1.168686838104932E+10,      /* J =  6 */
(PID.TID 0000.0001)                 1.161485798500282E+10,      /* J =  7 */
(PID.TID 0000.0001)                 1.153930959069846E+10,      /* J =  8 */
(PID.TID 0000.0001)                 1.146024621090888E+10,      /* J =  9 */
(PID.TID 0000.0001)                 1.137769192910560E+10,      /* J = 10 */
(PID.TID 0000.0001)                 1.129167189212255E+10,      /* J = 11 */
(PID.TID 0000.0001)                 1.120221230249629E+10,      /* J = 12 */
(PID.TID 0000.0001)                 1.110934041048438E+10,      /* J = 13 */
(PID.TID 0000.0001)                 1.101308450576488E+10,      /* J = 14 */
(PID.TID 0000.0001)                 1.091347390881877E+10,      /* J = 15 */
(PID.TID 0000.0001)                 1.081053896199886E+10,      /* J = 16 */
(PID.TID 0000.0001)                 1.070431102028693E+10,      /* J = 17 */
(PID.TID 0000.0001)                 1.059482244174344E+10,      /* J = 18 */
(PID.TID 0000.0001)                 1.048210657764984E+10,      /* J = 19 */
(PID.TID 0000.0001)                 1.036619776235002E+10,      /* J = 20 */
(PID.TID 0000.0001)                 1.024713130279239E+10,      /* J = 21 */
(PID.TID 0000.0001)                 1.012494346777366E+10,      /* J = 22 */
(PID.TID 0000.0001)                 9.999671476892084E+09,      /* J = 23 */
(PID.TID 0000.0001)                 9.871353489209755E+09,      /* J = 24 */
(PID.TID 0000.0001)                 9.740028591628536E+09,      /* J = 25 */
(PID.TID 0000.0001)                 9.605736786984652E+09,      /* J = 26 */
(PID.TID 0000.0001)                 9.468518981862513E+09,      /* J = 27 */
(PID.TID 0000.0001)                 9.328416974134933E+09,      /* J = 28 */
(PID.TID 0000.0001)                 9.185473440230581E+09,      /* J = 29 */
(PID.TID 0000.0001)                 9.039731922134653E+09,      /* J = 30 */
(PID.TID 0000.0001)                 8.891236814125528E+09,      /* J = 31 */
(PID.TID 0000.0001)                 8.740033349251320E+09,      /* J = 32 */
(PID.TID 0000.0001)                 8.586167585552389E+09,      /* J = 33 */
(PID.TID 0000.0001)                 8.429686392030848E+09,      /* J = 34 */
(PID.TID 0000.0001)                 8.270637434373945E+09,      /* J = 35 */
(PID.TID 0000.0001)                 8.109069160435303E+09,      /* J = 36 */
(PID.TID 0000.0001)                 7.945030785475936E+09,      /* J = 37 */
(PID.TID 0000.0001)                 7.778572277174043E+09,      /* J = 38 */
(PID.TID 0000.0001)                 7.609744340403865E+09,      /* J = 39 */
(PID.TID 0000.0001)                 7.438598401790304E+09,      /* J = 40 */
(PID.TID 0000.0001)                 7.265186594044338E+09,      /* J = 41 */
(PID.TID 0000.0001)                 7.089561740082285E+09,      /* J = 42 */
(PID.TID 0000.0001)                 6.911777336936083E+09,      /* J = 43 */
(PID.TID 0000.0001)                 6.731887539457176E+09,      /* J = 44 */
(PID.TID 0000.0001)                 6.549947143820458E+09,      /* J = 45 */
(PID.TID 0000.0001)                 6.366011570833056E+09,      /* J = 46 */
(PID.TID 0000.0001)                 6.180136849052222E+09,      /* J = 47 */
(PID.TID 0000.0001)                 5.992379597718760E+09,      /* J = 48 */
(PID.TID 0000.0001)                 5.802797009510403E+09,      /* J = 49 */
(PID.TID 0000.0001)                 5.611446833120007E+09,      /* J = 50 */
(PID.TID 0000.0001)                 5.418387355664783E+09,      /* J = 51 */
(PID.TID 0000.0001)                 5.223677384932224E+09,      /* J = 52 */
(PID.TID 0000.0001)                 5.027376231465073E+09,      /* J = 53 */
(PID.TID 0000.0001)                 4.829543690496597E+09,      /* J = 54 */
(PID.TID 0000.0001)                 4.630240023735217E+09,      /* J = 55 */
(PID.TID 0000.0001)                 4.429525941008306E+09,      /* J = 56 */
(PID.TID 0000.0001)                 4.227462581770208E+09,      /* J = 57 */
(PID.TID 0000.0001)                 4.024111496477147E+09,      /* J = 58 */
(PID.TID 0000.0001)                 3.819534627839939E+09,      /* J = 59 */
(PID.TID 0000.0001)                 3.613794291954373E+09,      /* J = 60 */
(PID.TID 0000.0001)                 3.406953159319860E+09,      /* J = 61 */
(PID.TID 0000.0001)                 3.199074235749182E+09       /* J = 62 */
(PID.TID 0000.0001)     ;
(PID.TID 0000.0001) globalArea = /* Integrated horizontal Area (m^2) */
(PID.TID 0000.0001)                 2.440046518395721E+13
(PID.TID 0000.0001)     ;
(PID.TID 0000.0001) // =======================================================
(PID.TID 0000.0001) // End of Model config. summary
(PID.TID 0000.0001) // =======================================================
(PID.TID 0000.0001) 
(PID.TID 0000.0001) == Packages configuration : Check & print summary ==
(PID.TID 0000.0001) 
(PID.TID 0000.0001) GMREDI_CHECK: #define GMREDI
(PID.TID 0000.0001) GM_AdvForm =     /* if FALSE => use SkewFlux Form */
(PID.TID 0000.0001)                   F
(PID.TID 0000.0001)     ;
(PID.TID 0000.0001) GM_InMomAsStress = /* if TRUE => apply as Eddy Stress */
(PID.TID 0000.0001)                   F
(PID.TID 0000.0001)     ;
(PID.TID 0000.0001) GM_AdvSeparate = /* Calc Bolus & Euler Adv. separately */
(PID.TID 0000.0001)                   F
(PID.TID 0000.0001)     ;
(PID.TID 0000.0001) GM_ExtraDiag =   /* Tensor Extra Diag (line 1&2) non 0 */
(PID.TID 0000.0001)                   F
(PID.TID 0000.0001)     ;
(PID.TID 0000.0001) GM_isopycK =    /* Background Isopyc. Diffusivity [m^2/s] */
(PID.TID 0000.0001)                 1.000000000000000E+03
(PID.TID 0000.0001)     ;
(PID.TID 0000.0001) GM_advec*K =    /* Backg. GM-Advec(=Bolus) Diffusivity [m^2/s] */
(PID.TID 0000.0001)                 0.000000000000000E+00
(PID.TID 0000.0001)     ;
(PID.TID 0000.0001) GM_skewflx*K =  /* Background GM_SkewFlx Diffusivity [m^2/s] */
(PID.TID 0000.0001)                 1.000000000000000E+03
(PID.TID 0000.0001)     ;
(PID.TID 0000.0001) GM_isoFac_calcK = /* Fraction of dynamic K added to Redi tensor */
(PID.TID 0000.0001)                 1.000000000000000E+00
(PID.TID 0000.0001)     ;
(PID.TID 0000.0001) GM_Kmin_horiz = /* Minimum Horizontal Diffusivity [m^2/s] */
(PID.TID 0000.0001)                 5.000000000000000E+01
(PID.TID 0000.0001)     ;
(PID.TID 0000.0001) GM_Visbeck_alpha = /* Visbeck alpha coeff. [-] */
(PID.TID 0000.0001)                 0.000000000000000E+00
(PID.TID 0000.0001)     ;
(PID.TID 0000.0001) GM_Small_Number =  /* epsilon used in slope calc */
(PID.TID 0000.0001)                 9.999999999999999E-21
(PID.TID 0000.0001)     ;
(PID.TID 0000.0001) GM_slopeSqCutoff = /* Slope^2 cut-off value */
(PID.TID 0000.0001)                 1.000000000000000E+08
(PID.TID 0000.0001)     ;
(PID.TID 0000.0001) GM_taper_scheme =  /* Type of Tapering/Clipping scheme */
(PID.TID 0000.0001)               'dm95                                    '
(PID.TID 0000.0001)     ;
(PID.TID 0000.0001) GM_maxSlope =  /* Maximum Slope (Tapering/Clipping) */
(PID.TID 0000.0001)                 1.000000000000000E-02
(PID.TID 0000.0001)     ;
(PID.TID 0000.0001) GM_facTrL2dz = /* Minimum Trans.Layer Thick. (factor of dz) */
(PID.TID 0000.0001)                 1.000000000000000E+00
(PID.TID 0000.0001)     ;
(PID.TID 0000.0001) GM_facTrL2ML = /* Max.Trans.Layer Thick. (factor of MxL Depth)*/
(PID.TID 0000.0001)                 5.000000000000000E+00
(PID.TID 0000.0001)     ;
(PID.TID 0000.0001) GM_maxTransLay = /* Maximum Transition Layer Thickness [m] */
(PID.TID 0000.0001)                 5.000000000000000E+02
(PID.TID 0000.0001)     ;
(PID.TID 0000.0001) GM_UseBVP = /* if TRUE => use bvp a la Ferrari et al. (2010) */
(PID.TID 0000.0001)                   F
(PID.TID 0000.0001)     ;
(PID.TID 0000.0001) GM_BVP_ModeNumber = /* Vertical mode number for BVP wave speed */
(PID.TID 0000.0001)                       1
(PID.TID 0000.0001)     ;
(PID.TID 0000.0001) GM_BVP_cMin = /* Minimum wave speed for BVP [m/s] */
(PID.TID 0000.0001)                 1.000000000000000E-01
(PID.TID 0000.0001)     ;
(PID.TID 0000.0001) GM_useSubMeso = /* if TRUE => use Sub-Meso param. (B.Fox-Kemper) */
(PID.TID 0000.0001)                   F
(PID.TID 0000.0001)     ;
(PID.TID 0000.0001) subMeso_Ceff = /* efficiency coeff. of Mixed-Layer Eddies [-] */
(PID.TID 0000.0001)                 7.000000000000001E-02
(PID.TID 0000.0001)     ;
(PID.TID 0000.0001) subMeso_invTau = /* inverse of Sub-Meso mixing time-scale [/s] */
(PID.TID 0000.0001)                 2.000000000000000E-06
(PID.TID 0000.0001)     ;
(PID.TID 0000.0001) subMeso_LfMin = /* minimum length-scale "Lf" [m] */
(PID.TID 0000.0001)                 1.000000000000000E+03
(PID.TID 0000.0001)     ;
(PID.TID 0000.0001) subMeso_Lmax = /* maximum grid-scale length [m] */
(PID.TID 0000.0001)                 1.100000000000000E+05
(PID.TID 0000.0001)     ;
(PID.TID 0000.0001) GM_useLeithQG = /* if TRUE => add QG Leith viscosity to GMRedi tensor */
(PID.TID 0000.0001)                   F
(PID.TID 0000.0001)     ;
(PID.TID 0000.0001) GM_useGEOM = /* using GEOMETRIC */
(PID.TID 0000.0001)                   F
(PID.TID 0000.0001)     ;
(PID.TID 0000.0001) CTRL_CHECK:  --> Starts to check CTRL set-up
(PID.TID 0000.0001) CTRL_CHECK:  <-- Ends Normally
(PID.TID 0000.0001) 
(PID.TID 0000.0001) COST_CHECK: #define ALLOW_COST
(PID.TID 0000.0001) GRDCHK_CHECK: grdchk package
(PID.TID 0000.0001) 
(PID.TID 0000.0001) // =======================================================
(PID.TID 0000.0001) // Gradient check configuration  >>> START <<<
(PID.TID 0000.0001) // =======================================================
(PID.TID 0000.0001) 
(PID.TID 0000.0001)   grdchkvarindex :                      1
(PID.TID 0000.0001)   matching CTRL xx_file:       "xx_theta"
(PID.TID 0000.0001)   eps =                         1.000E-05
(PID.TID 0000.0001)   First location:                       0
(PID.TID 0000.0001)   Last location:                        4
(PID.TID 0000.0001)   Increment:                            1
(PID.TID 0000.0001)   grdchkWhichProc:                      0
(PID.TID 0000.0001)   iLocTile =      1 ,   jLocTile =      1
(PID.TID 0000.0001) 
(PID.TID 0000.0001) // =======================================================
(PID.TID 0000.0001) // Gradient check configuration  >>> END <<<
(PID.TID 0000.0001) // =======================================================
(PID.TID 0000.0001) 
(PID.TID 0000.0001) GAD_CHECK: #define ALLOW_GENERIC_ADVDIFF
(PID.TID 0000.0001) // =======================================================
(PID.TID 0000.0001) // Check Model config. (CONFIG_CHECK):
(PID.TID 0000.0001) // CONFIG_CHECK : Normal End
(PID.TID 0000.0001) // =======================================================
(PID.TID 0000.0001) 
(PID.TID 0000.0001) Start initial hydrostatic pressure computation
(PID.TID 0000.0001) Pressure is predetermined for buoyancyRelation OCEANIC
(PID.TID 0000.0001) 
(PID.TID 0000.0001) DIAGSTATS_INI_IO: open file: dynStDiag.0000000000.txt , unit=     9
(PID.TID 0000.0001) // =======================================================
(PID.TID 0000.0001) // Model current state
(PID.TID 0000.0001) // =======================================================
(PID.TID 0000.0001) 
(PID.TID 0000.0001) // =======================================================
(PID.TID 0000.0001) // Begin MONITOR dynamic field statistics
(PID.TID 0000.0001) // =======================================================
(PID.TID 0000.0001) %MON time_tsnumber                =                     0
(PID.TID 0000.0001) %MON time_secondsf                =   0.0000000000000E+00
(PID.TID 0000.0001) %MON dynstat_eta_max              =   0.0000000000000E+00
(PID.TID 0000.0001) %MON dynstat_eta_min              =   0.0000000000000E+00
(PID.TID 0000.0001) %MON dynstat_eta_mean             =   0.0000000000000E+00
(PID.TID 0000.0001) %MON dynstat_eta_sd               =   0.0000000000000E+00
(PID.TID 0000.0001) %MON dynstat_eta_del2             =   0.0000000000000E+00
(PID.TID 0000.0001) %MON dynstat_uvel_max             =   0.0000000000000E+00
(PID.TID 0000.0001) %MON dynstat_uvel_min             =   0.0000000000000E+00
(PID.TID 0000.0001) %MON dynstat_uvel_mean            =   0.0000000000000E+00
(PID.TID 0000.0001) %MON dynstat_uvel_sd              =   0.0000000000000E+00
(PID.TID 0000.0001) %MON dynstat_uvel_del2            =   0.0000000000000E+00
(PID.TID 0000.0001) %MON dynstat_vvel_max             =   0.0000000000000E+00
(PID.TID 0000.0001) %MON dynstat_vvel_min             =   0.0000000000000E+00
(PID.TID 0000.0001) %MON dynstat_vvel_mean            =   0.0000000000000E+00
(PID.TID 0000.0001) %MON dynstat_vvel_sd              =   0.0000000000000E+00
(PID.TID 0000.0001) %MON dynstat_vvel_del2            =   0.0000000000000E+00
(PID.TID 0000.0001) %MON dynstat_wvel_max             =  -0.0000000000000E+00
(PID.TID 0000.0001) %MON dynstat_wvel_min             =  -0.0000000000000E+00
(PID.TID 0000.0001) %MON dynstat_wvel_mean            =   0.0000000000000E+00
(PID.TID 0000.0001) %MON dynstat_wvel_sd              =   0.0000000000000E+00
(PID.TID 0000.0001) %MON dynstat_wvel_del2            =   0.0000000000000E+00
(PID.TID 0000.0001) %MON dynstat_theta_max            =   2.3000000000000E+01
(PID.TID 0000.0001) %MON dynstat_theta_min            =   1.0000000000000E+00
(PID.TID 0000.0001) %MON dynstat_theta_mean           =   4.0799558546244E+00
(PID.TID 0000.0001) %MON dynstat_theta_sd             =   4.6722746748116E+00
(PID.TID 0000.0001) %MON dynstat_theta_del2           =   0.0000000000000E+00
(PID.TID 0000.0001) %MON dynstat_salt_max             =   3.4500000000000E+01
(PID.TID 0000.0001) %MON dynstat_salt_min             =   3.4500000000000E+01
(PID.TID 0000.0001) %MON dynstat_salt_mean            =   3.4500000000000E+01
(PID.TID 0000.0001) %MON dynstat_salt_sd              =   1.2079226507922E-13
(PID.TID 0000.0001) %MON dynstat_salt_del2            =   0.0000000000000E+00
(PID.TID 0000.0001) %MON trAdv_CFL_u_max              =   0.0000000000000E+00
(PID.TID 0000.0001) %MON trAdv_CFL_v_max              =   0.0000000000000E+00
(PID.TID 0000.0001) %MON trAdv_CFL_w_max              =   0.0000000000000E+00
(PID.TID 0000.0001) %MON advcfl_uvel_max              =   0.0000000000000E+00
(PID.TID 0000.0001) %MON advcfl_vvel_max              =   0.0000000000000E+00
(PID.TID 0000.0001) %MON advcfl_wvel_max              =   0.0000000000000E+00
(PID.TID 0000.0001) %MON advcfl_W_hf_max              =   0.0000000000000E+00
(PID.TID 0000.0001) %MON pe_b_mean                    =   0.0000000000000E+00
(PID.TID 0000.0001) %MON ke_max                       =   0.0000000000000E+00
(PID.TID 0000.0001) %MON ke_mean                      =   0.0000000000000E+00
(PID.TID 0000.0001) %MON ke_vol                       =   7.5744557036543E+16
(PID.TID 0000.0001) %MON vort_r_min                   =   0.0000000000000E+00
(PID.TID 0000.0001) %MON vort_r_max                   =   0.0000000000000E+00
(PID.TID 0000.0001) %MON vort_a_mean                  =   9.3555569952478E-05
(PID.TID 0000.0001) %MON vort_a_sd                    =   2.5193989267263E-05
(PID.TID 0000.0001) %MON vort_p_mean                  =   9.7478626213494E-05
(PID.TID 0000.0001) %MON vort_p_sd                    =   3.9497926395612E-05
(PID.TID 0000.0001) %MON surfExpan_theta_mean         =   0.0000000000000E+00
(PID.TID 0000.0001) %MON surfExpan_salt_mean          =   0.0000000000000E+00
(PID.TID 0000.0001) // =======================================================
(PID.TID 0000.0001) // End MONITOR dynamic field statistics
(PID.TID 0000.0001) // =======================================================
 cg2d: Sum(rhs),rhsMax =   0.00000000000000E+00  9.39971892369837E-04
 cg2d: Sum(rhs),rhsMax =   1.52655665885959E-15  2.49251898139421E-03
 cg2d: Sum(rhs),rhsMax =  -7.34134975033385E-15  4.28445462902603E-03
 cg2d: Sum(rhs),rhsMax =  -5.41233724504764E-16  6.02406791961946E-03
 cg2d: Sum(rhs),rhsMax =   1.48631107421693E-14  8.05529736580132E-03
 cg2d: Sum(rhs),rhsMax =  -4.03149735817010E-15  1.00620519432849E-02
 cg2d: Sum(rhs),rhsMax =  -7.50441375707567E-15  1.18376455794608E-02
 cg2d: Sum(rhs),rhsMax =   2.32990710058445E-14  1.32520276170039E-02
 cg2d: Sum(rhs),rhsMax =  -1.81018394718180E-15  1.42030339277927E-02
 cg2d: Sum(rhs),rhsMax =  -4.36499794642664E-14  1.46317773061484E-02
 cg2d: Sum(rhs),rhsMax =   7.16371406639382E-14  1.45336819660483E-02
 cg2d: Sum(rhs),rhsMax =  -4.19525525430231E-14  1.39606836162018E-02
 cg2d: Sum(rhs),rhsMax =   9.25509668903146E-14  1.32273077077143E-02
 cg2d: Sum(rhs),rhsMax =  -6.22869811284232E-14  1.34310334042690E-02
 cg2d: Sum(rhs),rhsMax =  -1.58706381370166E-13  1.33832759503059E-02
 cg2d: Sum(rhs),rhsMax =   2.99656133240234E-14  1.31033113023586E-02
 cg2d: Sum(rhs),rhsMax =  -1.00065788988246E-13  1.27322885728239E-02
 cg2d: Sum(rhs),rhsMax =   2.42436279385139E-14  1.25738388205265E-02
 cg2d: Sum(rhs),rhsMax =  -8.05614255861009E-14  1.22468714269474E-02
 cg2d: Sum(rhs),rhsMax =  -9.05751168511770E-14  1.17743589891377E-02
 cg2d: Sum(rhs),rhsMax =  -3.66614724689462E-13  1.11901682234819E-02
 cg2d: Sum(rhs),rhsMax =  -1.42247325030098E-14  1.05377768327036E-02
 cg2d: Sum(rhs),rhsMax =   8.86582474102227E-14  9.86828360013730E-03
 cg2d: Sum(rhs),rhsMax =   1.91882967848223E-13  9.23760901974053E-03
 cg2d: Sum(rhs),rhsMax =   4.41239926540771E-14  9.02311208405431E-03
 cg2d: Sum(rhs),rhsMax =  -2.12458522996783E-13  9.29470923683547E-03
 cg2d: Sum(rhs),rhsMax =   2.88605944698261E-13  9.70096987455403E-03
 cg2d: Sum(rhs),rhsMax =  -8.06507638451137E-14  1.02242085216637E-02
 cg2d: Sum(rhs),rhsMax =   1.62786450985664E-13  1.08398491501080E-02
 cg2d: Sum(rhs),rhsMax =  -6.70574706873595E-14  1.15184039166407E-02
 cg2d: Sum(rhs),rhsMax =   1.36252120697122E-13  1.22305042072479E-02
 cg2d: Sum(rhs),rhsMax =  -1.46063716677247E-13  1.32262395272113E-02
 cg2d: Sum(rhs),rhsMax =  -1.58414947826202E-13  1.42023275196142E-02
 cg2d: Sum(rhs),rhsMax =   1.28785870856518E-13  1.51096002571400E-02
 cg2d: Sum(rhs),rhsMax =  -1.73416836446449E-13  1.59058178345435E-02
 cg2d: Sum(rhs),rhsMax =  -2.10352568696948E-13  1.65585895999930E-02
 cg2d: Sum(rhs),rhsMax =   1.64285252068908E-13  1.70473627405743E-02
 cg2d: Sum(rhs),rhsMax =  -7.80139841616290E-14  1.77504831748359E-02
 cg2d: Sum(rhs),rhsMax =  -7.19840853591336E-14  1.85347186473299E-02
 cg2d: Sum(rhs),rhsMax =   1.97758476261356E-15  1.90997935371924E-02
 cg2d: Sum(rhs),rhsMax =  -3.24358595538143E-13  1.94339743009357E-02
 cg2d: Sum(rhs),rhsMax =   1.08822673094977E-13  1.95404093192500E-02
 cg2d: Sum(rhs),rhsMax =  -6.20684059704502E-15  1.94358908663585E-02
 cg2d: Sum(rhs),rhsMax =   4.18727552631282E-14  1.91488284205635E-02
 cg2d: Sum(rhs),rhsMax =  -1.49640716484711E-13  1.87166780559249E-02
 cg2d: Sum(rhs),rhsMax =  -1.17562209966948E-13  1.81830620897991E-02
 cg2d: Sum(rhs),rhsMax =   4.31599200823030E-14  1.75948064997751E-02
 cg2d: Sum(rhs),rhsMax =   4.15452394708637E-13  1.69990764393233E-02
 cg2d: Sum(rhs),rhsMax =  -1.62501956335603E-13  1.64407501879348E-02
 cg2d: Sum(rhs),rhsMax =   5.33947885905661E-14  1.61420343244460E-02
 cg2d: Sum(rhs),rhsMax =  -3.43336470365330E-14  1.63669475055915E-02
 cg2d: Sum(rhs),rhsMax =  -1.04284636481822E-13  1.66380638067012E-02
 cg2d: Sum(rhs),rhsMax =   3.99749677804095E-14  1.70243585508746E-02
 cg2d: Sum(rhs),rhsMax =  -4.98344421284713E-13  1.74695865983336E-02
 cg2d: Sum(rhs),rhsMax =   6.41500741416223E-14  1.79409970407798E-02
 cg2d: Sum(rhs),rhsMax =   1.33018596137902E-13  1.84165496744326E-02
 cg2d: Sum(rhs),rhsMax =   1.03556052621911E-13  1.88758577424441E-02
 cg2d: Sum(rhs),rhsMax =   1.68309810533174E-13  1.93014587140958E-02
 cg2d: Sum(rhs),rhsMax =  -2.92030288839840E-13  1.96797765391770E-02
 cg2d: Sum(rhs),rhsMax =   1.22159227178287E-13  2.00017242433969E-02
 cg2d: Sum(rhs),rhsMax =  -7.89784904142721E-14  2.02629451673212E-02
 cg2d: Sum(rhs),rhsMax =   3.50428019935123E-13  2.04636424174480E-02
 cg2d: Sum(rhs),rhsMax =  -4.41452430166578E-13  2.08593917286613E-02
 cg2d: Sum(rhs),rhsMax =  -1.91652249625918E-14  2.14685602634276E-02
 cg2d: Sum(rhs),rhsMax =  -5.43190492585666E-13  2.19756860859822E-02
 cg2d: Sum(rhs),rhsMax =  -6.65439925384703E-14  2.23671481686461E-02
 cg2d: Sum(rhs),rhsMax =  -2.35020336525338E-14  2.26367717386609E-02
 cg2d: Sum(rhs),rhsMax =  -2.99572866513387E-13  2.27859219972438E-02
 cg2d: Sum(rhs),rhsMax =   9.95453719454531E-14  2.28231029603479E-02
 cg2d: Sum(rhs),rhsMax =  -7.69315167126194E-14  2.27631197314661E-02
 cg2d: Sum(rhs),rhsMax =  -6.36296570988293E-15  2.26258604143890E-02
 cg2d: Sum(rhs),rhsMax =  -2.46178077922821E-13  2.24348087761721E-02
 cg2d: Sum(rhs),rhsMax =   3.53959916932212E-13  2.22153869422895E-02
 cg2d: Sum(rhs),rhsMax =  -3.40748262939172E-13  2.19932679613519E-02
 cg2d: Sum(rhs),rhsMax =  -3.98812927127068E-13  2.17927666273619E-02
 cg2d: Sum(rhs),rhsMax =   3.71799813159157E-13  2.17110916206155E-02
 cg2d: Sum(rhs),rhsMax =  -9.34669008856304E-14  2.19131102319514E-02
 cg2d: Sum(rhs),rhsMax =  -1.20334298081559E-13  2.21409905136054E-02
 cg2d: Sum(rhs),rhsMax =  -1.56055723898874E-14  2.23742749418954E-02
 cg2d: Sum(rhs),rhsMax =   1.11639864019963E-13  2.26078833347111E-02
 cg2d: Sum(rhs),rhsMax =  -2.58973398281626E-13  2.28377094239617E-02
 cg2d: Sum(rhs),rhsMax =   6.39210906427934E-14  2.30609261472734E-02
 cg2d: Sum(rhs),rhsMax =   5.05775976655798E-14  2.32760926560155E-02
 cg2d: Sum(rhs),rhsMax =   7.51759765549309E-14  2.34831085912699E-02
 cg2d: Sum(rhs),rhsMax =  -2.60604038349044E-13  2.36831470206194E-02
 cg2d: Sum(rhs),rhsMax =  -2.32300290115006E-13  2.39225435650210E-02
 cg2d: Sum(rhs),rhsMax =   1.79606329808735E-13  2.43924393089875E-02
 cg2d: Sum(rhs),rhsMax =  -4.51083614905201E-13  2.48521858365282E-02
 cg2d: Sum(rhs),rhsMax =  -5.11431175187482E-13  2.52894871037889E-02
 cg2d: Sum(rhs),rhsMax =   6.96068203076550E-13  2.56944462502999E-02
 cg2d: Sum(rhs),rhsMax =   3.38451489056979E-13  2.60598843773204E-02
 cg2d: Sum(rhs),rhsMax =  -5.74609804182558E-14  2.63814138317105E-02
 cg2d: Sum(rhs),rhsMax =   5.93206039845029E-14  2.66573937577751E-02
 cg2d: Sum(rhs),rhsMax =  -7.91658405496776E-14  2.68887070693619E-02
 cg2d: Sum(rhs),rhsMax =   4.59701721133854E-13  2.70784305939058E-02
 cg2d: Sum(rhs),rhsMax =   7.29763471873923E-14  2.72313879676459E-02
 cg2d: Sum(rhs),rhsMax =   2.16354711923827E-14  2.73536751772465E-02
 cg2d: Sum(rhs),rhsMax =  -5.92775828422987E-13  2.74521602799552E-02
 cg2d: Sum(rhs),rhsMax =   1.52343415660283E-13  2.75340044068912E-02
 cg2d: Sum(rhs),rhsMax =   1.16455456389275E-13  2.76062317589073E-02
 cg2d: Sum(rhs),rhsMax =   6.43513020648356E-14  2.76753570707126E-02
 cg2d: Sum(rhs),rhsMax =  -1.35995381622678E-13  2.77662086660052E-02
 cg2d: Sum(rhs),rhsMax =   5.16739429023971E-14  2.79829488140543E-02
 cg2d: Sum(rhs),rhsMax =   2.47253606477926E-13  2.81794367994525E-02
 cg2d: Sum(rhs),rhsMax =   5.60107515923391E-14  2.83557894568451E-02
 cg2d: Sum(rhs),rhsMax =  -7.44890260584441E-14  2.85134041011848E-02
 cg2d: Sum(rhs),rhsMax =  -3.02452507483508E-13  2.86548723191471E-02
 cg2d: Sum(rhs),rhsMax =  -6.99509894452888E-14  2.87838166139028E-02
 cg2d: Sum(rhs),rhsMax =   2.81191736561937E-13  2.89046581565448E-02
 cg2d: Sum(rhs),rhsMax =  -3.95440624689769E-13  2.90223316585369E-02
 cg2d: Sum(rhs),rhsMax =  -1.71564151774106E-13  2.91419659216113E-02
 cg2d: Sum(rhs),rhsMax =  -1.63265234665033E-13  2.92685525240232E-02
 cg2d: Sum(rhs),rhsMax =   3.92533228144032E-13  2.94066242159211E-02
 cg2d: Sum(rhs),rhsMax =  -5.16531262206854E-14  2.95626925793413E-02
 cg2d: Sum(rhs),rhsMax =  -8.12336309330419E-14  2.97778224090806E-02
 cg2d: Sum(rhs),rhsMax =  -3.79224429636338E-13  2.99960206357922E-02
 cg2d: Sum(rhs),rhsMax =   1.40575051599257E-13  3.02161807554215E-02
 cg2d: Sum(rhs),rhsMax =   2.70075628527877E-13  3.04373626492309E-02
 cg2d: Sum(rhs),rhsMax =  -3.76983166905376E-13  3.06587481855805E-02
 cg2d: Sum(rhs),rhsMax =  -3.61655150271645E-14  3.08795990808330E-02
 cg2d: Sum(rhs),rhsMax =  -3.18904624929672E-13  3.11417659449007E-02
 cg2d: Sum(rhs),rhsMax =  -7.12471748265386E-13  3.14168470135621E-02
 cg2d: Sum(rhs),rhsMax =   4.21815360418520E-14  3.16916739655422E-02
 cg2d: Sum(rhs),rhsMax =  -1.66158753422962E-13  3.19611682763160E-02
 cg2d: Sum(rhs),rhsMax =  -2.29552488129059E-13  3.22205334793098E-02
 cg2d: Sum(rhs),rhsMax =   6.07111583228459E-13  3.24655279757755E-02
 cg2d: Sum(rhs),rhsMax =   1.11473330566270E-13  3.26927038977188E-02
 cg2d: Sum(rhs),rhsMax =   1.02876041019329E-13  3.28995839463641E-02
 cg2d: Sum(rhs),rhsMax =   1.44238787580520E-13  3.30847745517792E-02
 cg2d: Sum(rhs),rhsMax =  -2.28775332011821E-14  3.32480236438522E-02
 cg2d: Sum(rhs),rhsMax =  -5.38805111638396E-14  3.33902137948323E-02
 cg2d: Sum(rhs),rhsMax =  -3.97036570287668E-13  3.35132954504894E-02
 cg2d: Sum(rhs),rhsMax =  -2.56468457582315E-13  3.36201638070380E-02
 cg2d: Sum(rhs),rhsMax =   5.35196886808365E-14  3.37144769458440E-02
 cg2d: Sum(rhs),rhsMax =  -3.97085142544995E-13  3.38004392254025E-02
 cg2d: Sum(rhs),rhsMax =  -1.44738387941601E-13  3.38825782394801E-02
 cg2d: Sum(rhs),rhsMax =   3.66373598126302E-14  3.39655053892646E-02
 cg2d: Sum(rhs),rhsMax =  -1.69524116966357E-13  3.40904747223139E-02
 cg2d: Sum(rhs),rhsMax =   2.71074829250040E-13  3.42333989642905E-02
 cg2d: Sum(rhs),rhsMax =   2.22787066572749E-13  3.43811296124105E-02
 cg2d: Sum(rhs),rhsMax =   3.40623362848902E-13  3.45354758779694E-02
 cg2d: Sum(rhs),rhsMax =  -1.13457854222787E-13  3.46980016236988E-02
 cg2d: Sum(rhs),rhsMax =  -1.05609965217468E-13  3.48699592078029E-02
 cg2d: Sum(rhs),rhsMax =  -1.47187817489680E-13  3.50522329790644E-02
 cg2d: Sum(rhs),rhsMax =   4.75522399234762E-14  3.52452923110389E-02
 cg2d: Sum(rhs),rhsMax =  -2.81233369925360E-14  3.54491568478054E-02
 cg2d: Sum(rhs),rhsMax =  -1.54674884011996E-13  3.56633786186505E-02
 cg2d: Sum(rhs),rhsMax =   6.04308270091281E-14  3.58870453257439E-02
 cg2d: Sum(rhs),rhsMax =  -4.82246187427648E-13  3.61188098342888E-02
 cg2d: Sum(rhs),rhsMax =   2.92224577869149E-13  3.63569378312089E-02
 cg2d: Sum(rhs),rhsMax =   2.97740998522755E-13  3.65993319162786E-02
 cg2d: Sum(rhs),rhsMax =  -3.87537224533219E-14  3.68435623376536E-02
 cg2d: Sum(rhs),rhsMax =   1.03486663682872E-13  3.70872490551086E-02
 cg2d: Sum(rhs),rhsMax =  -1.31346322707060E-13  3.73280516440930E-02
 cg2d: Sum(rhs),rhsMax =   2.01227923213310E-13  3.75637395725450E-02
 cg2d: Sum(rhs),rhsMax =  -1.73076830645158E-13  3.77922655020513E-02
 cg2d: Sum(rhs),rhsMax =  -1.16621989842969E-13  3.80118444430071E-02
 cg2d: Sum(rhs),rhsMax =  -1.39381561847784E-13  3.82210281674076E-02
 cg2d: Sum(rhs),rhsMax =  -5.75005321135080E-13  3.84187707166590E-02
 cg2d: Sum(rhs),rhsMax =  -1.02765018716866E-14  3.86044730979758E-02
 cg2d: Sum(rhs),rhsMax =   5.57033585923961E-13  3.87780035505387E-02
 cg2d: Sum(rhs),rhsMax =   1.85892967685675E-14  3.89396964375084E-02
 cg2d: Sum(rhs),rhsMax =  -3.65735219887142E-13  3.90903320021420E-02
 cg2d: Sum(rhs),rhsMax =   4.05966926741996E-13  3.92310829279670E-02
 cg2d: Sum(rhs),rhsMax =  -2.22946661132539E-13  3.93634508414341E-02
 cg2d: Sum(rhs),rhsMax =   2.90115154122361E-13  3.94891886752530E-02
 cg2d: Sum(rhs),rhsMax =   6.54754028772686E-14  3.96102137038587E-02
 cg2d: Sum(rhs),rhsMax =   3.76934594648048E-13  3.97285159210387E-02
 cg2d: Sum(rhs),rhsMax =  -7.08669234406045E-14  3.98460662378732E-02
 cg2d: Sum(rhs),rhsMax =  -1.32338584535319E-13  3.99647309084155E-02
 cg2d: Sum(rhs),rhsMax =   4.36067848497146E-13  4.00861903111500E-02
 cg2d: Sum(rhs),rhsMax =   4.17166301502903E-14  4.02183926097648E-02
 cg2d: Sum(rhs),rhsMax =   6.07361383409000E-14  4.03851913512296E-02
 cg2d: Sum(rhs),rhsMax =   1.83159043487535E-13  4.05557346803240E-02
 cg2d: Sum(rhs),rhsMax =  -3.35481642466107E-13  4.07294110209327E-02
 cg2d: Sum(rhs),rhsMax =  -1.15463194561016E-14  4.09054890678118E-02
 cg2d: Sum(rhs),rhsMax =   5.88577797611123E-13  4.10831745986904E-02
 cg2d: Sum(rhs),rhsMax =   3.54646867428698E-13  4.12616638436331E-02
 cg2d: Sum(rhs),rhsMax =   3.38611083616769E-13  4.14401870039713E-02
 cg2d: Sum(rhs),rhsMax =   4.43464709398711E-14  4.16180439383798E-02
 cg2d: Sum(rhs),rhsMax =  -3.75401099095285E-13  4.17946340804645E-02
 cg2d: Sum(rhs),rhsMax =  -1.39929734466193E-13  4.19694729618129E-02
 cg2d: Sum(rhs),rhsMax =  -1.64757096854373E-13  4.21422065694563E-02
 cg2d: Sum(rhs),rhsMax =  -9.29395449489334E-14  4.23126137049415E-02
 cg2d: Sum(rhs),rhsMax =   3.62765373296270E-14  4.24805955608189E-02
 cg2d: Sum(rhs),rhsMax =  -6.41778297172380E-14  4.26461641059956E-02
 cg2d: Sum(rhs),rhsMax =  -2.64156752027844E-13  4.28094279646740E-02
 cg2d: Sum(rhs),rhsMax =   1.62973801121069E-13  4.29705768126937E-02
 cg2d: Sum(rhs),rhsMax =  -2.56725196656760E-13  4.31298644247672E-02
 cg2d: Sum(rhs),rhsMax =  -4.30142033103209E-14  4.32875911173845E-02
 cg2d: Sum(rhs),rhsMax =  -4.67056948671996E-14  4.34440725949053E-02
 cg2d: Sum(rhs),rhsMax =   2.80227230309293E-13  4.35994856637992E-02
 cg2d: Sum(rhs),rhsMax =   7.67857999406374E-14  4.37541055955819E-02
 cg2d: Sum(rhs),rhsMax =  -3.08190972742040E-13  4.39083304038594E-02
 cg2d: Sum(rhs),rhsMax =  -1.17413023748014E-13  4.40625806672501E-02
 cg2d: Sum(rhs),rhsMax =   2.47094011918136E-13  4.42172511770035E-02
 cg2d: Sum(rhs),rhsMax =   1.40804035098085E-13  4.43726835382416E-02
 cg2d: Sum(rhs),rhsMax =   2.95236057823445E-13  4.45291595258653E-02
 cg2d: Sum(rhs),rhsMax =  -4.00936228661664E-13  4.46869078786114E-02
 cg2d: Sum(rhs),rhsMax =   4.45060654996610E-14  4.48461153420849E-02
 cg2d: Sum(rhs),rhsMax =   4.35339264637236E-13  4.50069456342505E-02
 cg2d: Sum(rhs),rhsMax =   9.55208134811869E-14  4.51695504734290E-02
 cg2d: Sum(rhs),rhsMax =   1.19723675418015E-13  4.53340722041226E-02
 cg2d: Sum(rhs),rhsMax =   3.36085326235747E-13  4.55006344353273E-02
 cg2d: Sum(rhs),rhsMax =   7.72090724687757E-14  4.56693334307133E-02
 cg2d: Sum(rhs),rhsMax =   6.53990750443256E-14  4.58402253991619E-02
 cg2d: Sum(rhs),rhsMax =  -2.33112140701763E-13  4.60133179304049E-02
 cg2d: Sum(rhs),rhsMax =   3.04402336670506E-13  4.61885658280330E-02
 cg2d: Sum(rhs),rhsMax =   1.37868882976733E-13  4.63658707189007E-02
 cg2d: Sum(rhs),rhsMax =   2.08548456281932E-13  4.65450829595942E-02
 cg2d: Sum(rhs),rhsMax =   3.55729334877708E-13  4.67260036631635E-02
 cg2d: Sum(rhs),rhsMax =   4.88775686591225E-14  4.69083896312820E-02
 cg2d: Sum(rhs),rhsMax =  -7.46486206182340E-14  4.70919550355638E-02
 cg2d: Sum(rhs),rhsMax =  -3.26488835966643E-13  4.72763745226234E-02
 cg2d: Sum(rhs),rhsMax =  -1.08607567383956E-13  4.74612899435379E-02
 cg2d: Sum(rhs),rhsMax =   3.50219853118006E-13  4.76463167557520E-02
 cg2d: Sum(rhs),rhsMax =  -2.05009620390939E-13  4.78310543448300E-02
 cg2d: Sum(rhs),rhsMax =  -3.48610029732299E-14  4.80150988526392E-02
 cg2d: Sum(rhs),rhsMax =  -6.93056723122254E-14  4.81980536016640E-02
 cg2d: Sum(rhs),rhsMax =  -2.12302397883946E-13  4.83795338181984E-02
 cg2d: Sum(rhs),rhsMax =   1.92831861589582E-13  4.85591812567254E-02
 cg2d: Sum(rhs),rhsMax =   1.45272682772202E-13  4.87366768551413E-02
 cg2d: Sum(rhs),rhsMax =  -9.86710713135608E-14  4.89117490999524E-02
 cg2d: Sum(rhs),rhsMax =   3.34857142014755E-13  4.90841793176655E-02
 cg2d: Sum(rhs),rhsMax =   1.16781584402759E-13  4.92538073390153E-02
 cg2d: Sum(rhs),rhsMax =  -4.89212836907171E-13  4.94205341002270E-02
 cg2d: Sum(rhs),rhsMax =  -2.48551179637957E-14  4.95843225605472E-02
 cg2d: Sum(rhs),rhsMax =   4.76271799776384E-13  4.97451941910353E-02
 cg2d: Sum(rhs),rhsMax =   1.05387920612543E-13  4.99032252723506E-02
 cg2d: Sum(rhs),rhsMax =   1.69260438998009E-13  5.00585398507761E-02
 cg2d: Sum(rhs),rhsMax =   2.22065421606743E-13  5.02113017503506E-02
 cg2d: Sum(rhs),rhsMax =  -7.49400541621981E-15  5.03617053764603E-02
 cg2d: Sum(rhs),rhsMax =  -2.04142258652951E-13  5.05099661474995E-02
 cg2d: Sum(rhs),rhsMax =   2.74349987172684E-13  5.06563094731778E-02
 cg2d: Sum(rhs),rhsMax =  -9.37930288991140E-14  5.08009606675534E-02
 cg2d: Sum(rhs),rhsMax =   5.08620923156400E-14  5.09441393892574E-02
 cg2d: Sum(rhs),rhsMax =   2.75057754350883E-14  5.10860468511954E-02
 cg2d: Sum(rhs),rhsMax =  -9.61827839596197E-13  5.12268549499395E-02
 cg2d: Sum(rhs),rhsMax =  -7.67032271031809E-13  5.13667056452569E-02
 cg2d: Sum(rhs),rhsMax =   1.74034398003897E-13  5.15057083501043E-02
 cg2d: Sum(rhs),rhsMax =   7.98944244095878E-14  5.16439401433556E-02
 cg2d: Sum(rhs),rhsMax =  -9.16627884706145E-15  5.17814537022947E-02
 cg2d: Sum(rhs),rhsMax =   2.81261125500976E-13  5.19182820850396E-02
 cg2d: Sum(rhs),rhsMax =   1.52190759994397E-13  5.20544421504388E-02
 cg2d: Sum(rhs),rhsMax =  -3.92345878008626E-13  5.21899412773467E-02
 cg2d: Sum(rhs),rhsMax =   1.40179534646734E-13  5.23247751708242E-02
 cg2d: Sum(rhs),rhsMax =  -2.02338146237935E-13  5.24589339294013E-02
 cg2d: Sum(rhs),rhsMax =   6.00214322687975E-15  5.25924123425393E-02
 cg2d: Sum(rhs),rhsMax =   2.19754769936742E-14  5.27252214076572E-02
 cg2d: Sum(rhs),rhsMax =   2.02809991023400E-13  5.28573968237272E-02
 cg2d: Sum(rhs),rhsMax =  -2.83717493942959E-13  5.30007361173496E-02
 cg2d: Sum(rhs),rhsMax =  -3.82881226723697E-13  5.31590056370769E-02
 cg2d: Sum(rhs),rhsMax =   3.71772057583541E-13  5.33170844126374E-02
 cg2d: Sum(rhs),rhsMax =   9.54028522848205E-14  5.34748662566163E-02
 cg2d: Sum(rhs),rhsMax =   5.82957293548958E-13  5.36322790873072E-02
 cg2d: Sum(rhs),rhsMax =   4.23348855971284E-13  5.37892903794584E-02
 cg2d: Sum(rhs),rhsMax =  -8.03593303011496E-14  5.39459064841874E-02
 cg2d: Sum(rhs),rhsMax =   4.64767113683706E-14  5.41021728056707E-02
 cg2d: Sum(rhs),rhsMax =   1.40436273721178E-13  5.42581706276631E-02
 cg2d: Sum(rhs),rhsMax =  -2.78228828864968E-13  5.44140116541576E-02
 cg2d: Sum(rhs),rhsMax =   2.32376617947949E-13  5.45698309931793E-02
 cg2d: Sum(rhs),rhsMax =  -2.89657187124703E-13  5.47257790192242E-02
 cg2d: Sum(rhs),rhsMax =  -4.33209024208736E-13  5.48820173602675E-02
 cg2d: Sum(rhs),rhsMax =  -1.79425918567233E-13  5.50386879619304E-02
 cg2d: Sum(rhs),rhsMax =  -1.88724036398469E-13  5.51959442067041E-02
 cg2d: Sum(rhs),rhsMax =  -4.13218070871579E-13  5.53539006254824E-02
 cg2d: Sum(rhs),rhsMax =   1.23290266884624E-13  5.55126405110510E-02
 cg2d: Sum(rhs),rhsMax =   3.50372508783892E-13  5.56722302501678E-02
 cg2d: Sum(rhs),rhsMax =  -6.76222966511375E-13  5.58326788349117E-02
 cg2d: Sum(rhs),rhsMax =   4.73003580747644E-13  5.59939465244551E-02
 cg2d: Sum(rhs),rhsMax =  -3.81514264624627E-13  5.61559613146039E-02
 cg2d: Sum(rhs),rhsMax =  -4.80754325238308E-13  5.63186026762347E-02
 cg2d: Sum(rhs),rhsMax =  -1.61752555793981E-13  5.64817092170836E-02
 cg2d: Sum(rhs),rhsMax =   1.96544169828172E-13  5.66450837043933E-02
 cg2d: Sum(rhs),rhsMax =   7.53078155391051E-14  5.68085000575138E-02
 cg2d: Sum(rhs),rhsMax =  -1.88807303125316E-13  5.69717117440478E-02
 cg2d: Sum(rhs),rhsMax =   4.53706516800878E-13  5.71344611692639E-02
 cg2d: Sum(rhs),rhsMax =   2.99045510576690E-13  5.72964854706418E-02
 cg2d: Sum(rhs),rhsMax =  -2.60992616407663E-13  5.74575310743596E-02
 cg2d: Sum(rhs),rhsMax =   8.05883137999786E-14  5.76173683864191E-02
 cg2d: Sum(rhs),rhsMax =   3.22346316306010E-13  5.77758073428075E-02
 cg2d: Sum(rhs),rhsMax =  -6.72913114119211E-13  5.79326798157204E-02
 cg2d: Sum(rhs),rhsMax =   4.24174584345849E-14  5.80878625801781E-02
 cg2d: Sum(rhs),rhsMax =  -6.71220024006658E-13  5.82412671526809E-02
 cg2d: Sum(rhs),rhsMax =   6.71442068611583E-13  5.83928641400866E-02
 cg2d: Sum(rhs),rhsMax =   2.14335493797790E-13  5.85426615061925E-02
 cg2d: Sum(rhs),rhsMax =   3.54799523094584E-13  5.86906949704489E-02
 cg2d: Sum(rhs),rhsMax =   9.55763246324182E-14  5.88370431252148E-02
 cg2d: Sum(rhs),rhsMax =   5.51642065360625E-14  5.89818445030663E-02
 cg2d: Sum(rhs),rhsMax =   1.54244672589954E-13  5.91252576884541E-02
 cg2d: Sum(rhs),rhsMax =  -4.20476153895066E-13  5.92674685955479E-02
 cg2d: Sum(rhs),rhsMax =  -4.63865057476198E-14  5.94086678625090E-02
 cg2d: Sum(rhs),rhsMax =   4.19567158793654E-13  5.95490577599174E-02
 cg2d: Sum(rhs),rhsMax =   2.15182038854067E-13  5.96888237483806E-02
 cg2d: Sum(rhs),rhsMax =   1.12146403274949E-13  5.98281298817991E-02
 cg2d: Sum(rhs),rhsMax =   1.83991710756004E-13  5.99671132340691E-02
 cg2d: Sum(rhs),rhsMax =  -1.41844869183672E-13  6.01058805113358E-02
 cg2d: Sum(rhs),rhsMax =   8.62504512255668E-15  6.02445060794638E-02
 cg2d: Sum(rhs),rhsMax =   1.24844579119099E-13  6.03830307082907E-02
 cg2d: Sum(rhs),rhsMax =   2.16417161968963E-13  6.05214607271187E-02
 cg2d: Sum(rhs),rhsMax =   3.20264648134838E-13  6.06597676249571E-02
 cg2d: Sum(rhs),rhsMax =  -3.67435248893599E-13  6.07978893360280E-02
 cg2d: Sum(rhs),rhsMax =  -2.02636518675803E-13  6.09357331747975E-02
 cg2d: Sum(rhs),rhsMax =  -3.19778925561565E-13  6.10731806954009E-02
 cg2d: Sum(rhs),rhsMax =  -1.27314825348890E-13  6.12100945099050E-02
 cg2d: Sum(rhs),rhsMax =  -2.09887662805386E-13  6.13463263751899E-02
 cg2d: Sum(rhs),rhsMax =   9.10799213826863E-14  6.14817258334731E-02
 cg2d: Sum(rhs),rhsMax =   2.95458102428370E-14  6.16161489784186E-02
 cg2d: Sum(rhs),rhsMax =  -2.08819073144184E-13  6.17494667448148E-02
 cg2d: Sum(rhs),rhsMax =   2.28983498828939E-13  6.18815720179061E-02
 cg2d: Sum(rhs),rhsMax =   4.19893286807138E-13  6.20123895728923E-02
 cg2d: Sum(rhs),rhsMax =  -3.67275654333810E-13  6.21418674045638E-02
 cg2d: Sum(rhs),rhsMax =  -2.31897834268580E-14  6.22699935997937E-02
 cg2d: Sum(rhs),rhsMax =  -6.37059849317723E-14  6.23967925416351E-02
 cg2d: Sum(rhs),rhsMax =  -6.10830830360953E-14  6.25223329448654E-02
 cg2d: Sum(rhs),rhsMax =  -3.31047689261510E-13  6.26467161761577E-02
 cg2d: Sum(rhs),rhsMax =   3.17461334997660E-13  6.27700694296358E-02
 cg2d: Sum(rhs),rhsMax =   3.55881990543594E-13  6.28925450592865E-02
 cg2d: Sum(rhs),rhsMax =   2.29469221402212E-14  6.30143144707262E-02
 cg2d: Sum(rhs),rhsMax =  -4.93820262459366E-13  6.31355624573150E-02
 cg2d: Sum(rhs),rhsMax =   4.85507467562485E-13  6.32564807360088E-02
 cg2d: Sum(rhs),rhsMax =  -1.41199552050608E-13  6.33772613347958E-02
 cg2d: Sum(rhs),rhsMax =  -4.87020146433537E-13  6.34980894117613E-02
 cg2d: Sum(rhs),rhsMax =   1.05394859506447E-13  6.36191359560788E-02
 cg2d: Sum(rhs),rhsMax =   4.59958460208298E-13  6.37405509682419E-02
 cg2d: Sum(rhs),rhsMax =  -3.17593173981834E-14  6.38624575420883E-02
 cg2d: Sum(rhs),rhsMax =  -3.83026943495679E-15  6.39849469410463E-02
 cg2d: Sum(rhs),rhsMax =  -1.28529131782074E-13  6.41080747714007E-02
 cg2d: Sum(rhs),rhsMax =   7.38235861330594E-13  6.42318582310507E-02
 cg2d: Sum(rhs),rhsMax =  -5.07371922253697E-14  6.43562739647857E-02
 cg2d: Sum(rhs),rhsMax =  -7.31428806410861E-14  6.44812597945837E-02
 cg2d: Sum(rhs),rhsMax =   1.67553471097648E-13  6.46067152917045E-02
 cg2d: Sum(rhs),rhsMax =  -2.08257022737968E-13  6.47325053850352E-02
 cg2d: Sum(rhs),rhsMax =  -4.88775686591225E-13  6.48584642737737E-02
 cg2d: Sum(rhs),rhsMax =  -4.87526685688522E-14  6.49843999878090E-02
 cg2d: Sum(rhs),rhsMax =   3.43648720591005E-13  6.51100996035557E-02
 cg2d: Sum(rhs),rhsMax =   2.59924026746461E-13  6.52353356960088E-02
 cg2d: Sum(rhs),rhsMax =  -1.53765888910584E-13  6.53598736233181E-02
 cg2d: Sum(rhs),rhsMax =  -1.34912914173668E-13  6.54834793850028E-02
 cg2d: Sum(rhs),rhsMax =   4.38364622379339E-13  6.56059278235206E-02
 cg2d: Sum(rhs),rhsMax =   2.52686760404686E-13  6.57270093017646E-02
 cg2d: Sum(rhs),rhsMax =  -4.00568467284756E-13  6.58465358586106E-02
 cg2d: Sum(rhs),rhsMax =  -1.67289793129299E-13  6.59643463417697E-02
 cg2d: Sum(rhs),rhsMax =   7.24323379053260E-13  6.60803142879283E-02
 cg2d: Sum(rhs),rhsMax =  -2.14751827432025E-13  6.61943445916255E-02
 cg2d: Sum(rhs),rhsMax =   1.88765669761892E-13  6.63063698006257E-02
 cg2d: Sum(rhs),rhsMax =  -7.13318293321663E-14  6.64163552975958E-02
 cg2d: Sum(rhs),rhsMax =   1.73631942157471E-13  6.65243007929364E-02
 cg2d: Sum(rhs),rhsMax =  -1.86656246015104E-15  6.66302401405555E-02
 cg2d: Sum(rhs),rhsMax =   3.56221996344885E-13  6.67342398222273E-02
 cg2d: Sum(rhs),rhsMax =  -2.47787901308527E-14  6.68363961302597E-02
 cg2d: Sum(rhs),rhsMax =   1.62127256064792E-13  6.69368336577509E-02
 cg2d: Sum(rhs),rhsMax =   1.37653777265712E-13  6.70356929801173E-02
 cg2d: Sum(rhs),rhsMax =  -4.14425438410859E-13  6.71331334137814E-02
 cg2d: Sum(rhs),rhsMax =  -1.37723166204751E-13  6.72293263413422E-02
 cg2d: Sum(rhs),rhsMax =  -5.91693360973977E-13  6.73244492790504E-02
 cg2d: Sum(rhs),rhsMax =   1.99160132829945E-13  6.74186795736798E-02
 cg2d: Sum(rhs),rhsMax =  -2.80053757961696E-14  6.75121888754893E-02
 cg2d: Sum(rhs),rhsMax =   7.92560461704284E-14  6.76051346718252E-02
 cg2d: Sum(rhs),rhsMax =   2.60617916136852E-13  6.76976680996072E-02
 cg2d: Sum(rhs),rhsMax =   9.55555079507064E-14  6.77899246799429E-02
 cg2d: Sum(rhs),rhsMax =   7.83054177055931E-14  6.78820134284724E-02
 cg2d: Sum(rhs),rhsMax =   1.75894021570144E-13  6.79740259762177E-02
 cg2d: Sum(rhs),rhsMax =  -4.08978406696292E-14  6.80660335969280E-02
 cg2d: Sum(rhs),rhsMax =   7.37632177560954E-13  6.81690605532266E-02
 cg2d: Sum(rhs),rhsMax =  -4.75661177112841E-14  6.82757450159170E-02
 cg2d: Sum(rhs),rhsMax =   4.10241285386803E-13  6.83821558774363E-02
 cg2d: Sum(rhs),rhsMax =   2.55975796115138E-14  6.84882927463150E-02
 cg2d: Sum(rhs),rhsMax =  -2.42146580564651E-13  6.85941411833910E-02
 cg2d: Sum(rhs),rhsMax =  -3.87967435955261E-13  6.86996747456929E-02
 cg2d: Sum(rhs),rhsMax =   6.63635812969687E-14  6.88048573871783E-02
 cg2d: Sum(rhs),rhsMax =   1.51260948211274E-13  6.89096460899236E-02
 cg2d: Sum(rhs),rhsMax =   3.95627974825175E-13  6.90139929448190E-02
 cg2d: Sum(rhs),rhsMax =  -4.33889035811319E-14  6.91178476415177E-02
 cg2d: Sum(rhs),rhsMax =   3.02112501682217E-13  6.92211601803028E-02
 cg2d: Sum(rhs),rhsMax =  -2.48141784897626E-13  6.93238837033884E-02
 cg2d: Sum(rhs),rhsMax =   2.10838291270221E-13  6.94259765737093E-02
 cg2d: Sum(rhs),rhsMax =   2.86014267825152E-13  6.95274041858496E-02
 cg2d: Sum(rhs),rhsMax =  -6.19920781375072E-14  6.96281405340145E-02
 cg2d: Sum(rhs),rhsMax =  -7.66817165320788E-14  6.97281695021991E-02
 cg2d: Sum(rhs),rhsMax =  -4.26554624954889E-13  6.98274817644877E-02
 cg2d: Sum(rhs),rhsMax =  -3.59642871039512E-14  6.99261021835597E-02
 cg2d: Sum(rhs),rhsMax =  -2.17194318086200E-13  7.00240542212699E-02
 cg2d: Sum(rhs),rhsMax =  -3.24788806960186E-13  7.01213563815443E-02
 cg2d: Sum(rhs),rhsMax =   1.18551002348255E-13  7.02180401701639E-02
 cg2d: Sum(rhs),rhsMax =   2.82072976087733E-13  7.03141483599456E-02
 cg2d: Sum(rhs),rhsMax =  -3.95586341461751E-14  7.04097336629963E-02
 cg2d: Sum(rhs),rhsMax =  -3.25087179398054E-13  7.05048523063772E-02
 cg2d: Sum(rhs),rhsMax =  -4.64697724744667E-14  7.05995716989687E-02
 cg2d: Sum(rhs),rhsMax =   4.73662775668515E-13  7.06939579913289E-02
 cg2d: Sum(rhs),rhsMax =   1.58970059338515E-13  7.07880766015525E-02
 cg2d: Sum(rhs),rhsMax =  -4.20379009380412E-13  7.08819929910030E-02
 cg2d: Sum(rhs),rhsMax =  -1.65464864032572E-13  7.09789065562053E-02
 cg2d: Sum(rhs),rhsMax =  -2.45081732686003E-13  7.10835074442684E-02
 cg2d: Sum(rhs),rhsMax =  -2.46615228238767E-13  7.11880887432224E-02
 cg2d: Sum(rhs),rhsMax =  -4.52485271473790E-13  7.12926837700953E-02
 cg2d: Sum(rhs),rhsMax =  -1.76476888658073E-13  7.13973170874709E-02
 cg2d: Sum(rhs),rhsMax =   4.81135964403023E-13  7.15020061863447E-02
 cg2d: Sum(rhs),rhsMax =  -1.76400560825130E-13  7.16067612895596E-02
 cg2d: Sum(rhs),rhsMax =   3.89632770492199E-13  7.17115872128406E-02
 cg2d: Sum(rhs),rhsMax =  -1.75755243692066E-13  7.18164803920567E-02
 cg2d: Sum(rhs),rhsMax =  -1.80799819560207E-13  7.19214340893165E-02
 cg2d: Sum(rhs),rhsMax =  -3.01383917822307E-13  7.20264380233489E-02
 cg2d: Sum(rhs),rhsMax =   9.57081636165924E-14  7.21314770785535E-02
 cg2d: Sum(rhs),rhsMax =  -2.34569308421584E-13  7.22365292265634E-02
 cg2d: Sum(rhs),rhsMax =  -2.56565602096970E-13  7.23415666908020E-02
 cg2d: Sum(rhs),rhsMax =   2.12503625807159E-13  7.24465552658205E-02
 cg2d: Sum(rhs),rhsMax =  -1.54709578481516E-13  7.25514598415350E-02
 cg2d: Sum(rhs),rhsMax =  -2.78804757058992E-13  7.26562400825079E-02
 cg2d: Sum(rhs),rhsMax =  -1.61468061143921E-13  7.27608511222435E-02
 cg2d: Sum(rhs),rhsMax =  -1.30916111285018E-13  7.28652463700957E-02
 cg2d: Sum(rhs),rhsMax =  -2.51826337560601E-13  7.29693758876422E-02
 cg2d: Sum(rhs),rhsMax =  -3.35634298131993E-14  7.30731853281906E-02
 cg2d: Sum(rhs),rhsMax =   6.57252030578093E-14  7.31766160050221E-02
 cg2d: Sum(rhs),rhsMax =   5.56985013666633E-14  7.32796061889654E-02
 cg2d: Sum(rhs),rhsMax =  -1.31235300404597E-13  7.33820929776842E-02
 cg2d: Sum(rhs),rhsMax =  -1.16649745418584E-13  7.34840135907815E-02
 cg2d: Sum(rhs),rhsMax =   4.63171168085807E-14  7.35853082077568E-02
 cg2d: Sum(rhs),rhsMax =   3.01397795610114E-13  7.36859187773284E-02
 cg2d: Sum(rhs),rhsMax =  -2.21080098672388E-13  7.37857891970214E-02
 cg2d: Sum(rhs),rhsMax =   1.20327359187655E-13  7.38848674892396E-02
 cg2d: Sum(rhs),rhsMax =   2.08180694905025E-13  7.39831093638444E-02
 cg2d: Sum(rhs),rhsMax =   2.08083550390370E-13  7.40804816712846E-02
 cg2d: Sum(rhs),rhsMax =  -2.17950657521726E-14  7.41769648188584E-02
 cg2d: Sum(rhs),rhsMax =   2.42444953002519E-14  7.42725537608629E-02
 cg2d: Sum(rhs),rhsMax =  -1.40026878980848E-14  7.43672576847470E-02
 cg2d: Sum(rhs),rhsMax =  -3.99430488684516E-13  7.44610988848209E-02
 cg2d: Sum(rhs),rhsMax =  -5.21735432634785E-14  7.45541107742994E-02
 cg2d: Sum(rhs),rhsMax =   2.02352024025743E-13  7.46463371221194E-02
 cg2d: Sum(rhs),rhsMax =  -5.12090370108353E-14  7.47378330491479E-02
 cg2d: Sum(rhs),rhsMax =   4.96123975235463E-13  7.48286628403362E-02
 cg2d: Sum(rhs),rhsMax =  -3.42850747792056E-14  7.49189005070603E-02
 cg2d: Sum(rhs),rhsMax =   3.54119511492001E-13  7.50086295589734E-02
 cg2d: Sum(rhs),rhsMax =  -1.01404995511700E-13  7.50979413281788E-02
 cg2d: Sum(rhs),rhsMax =  -1.26551547019460E-13  7.51869351843784E-02
 cg2d: Sum(rhs),rhsMax =  -1.45980449950400E-13  7.52757155018522E-02
 cg2d: Sum(rhs),rhsMax =  -7.52939377512973E-14  7.53643947262488E-02
 cg2d: Sum(rhs),rhsMax =  -2.35478303522996E-13  7.54530826473879E-02
 cg2d: Sum(rhs),rhsMax =  -2.60083621306251E-13  7.55418794460836E-02
 cg2d: Sum(rhs),rhsMax =   9.73249258962028E-14  7.56308803504221E-02
 cg2d: Sum(rhs),rhsMax =   3.19667903259102E-13  7.57201709666521E-02
 cg2d: Sum(rhs),rhsMax =   1.78794479221978E-13  7.58101387544037E-02
 cg2d: Sum(rhs),rhsMax =   2.61686505798053E-13  7.59009990953516E-02
 cg2d: Sum(rhs),rhsMax =   9.78453429389958E-14  7.59923178916216E-02
 cg2d: Sum(rhs),rhsMax =  -8.33291768920219E-14  7.60841504678544E-02
 cg2d: Sum(rhs),rhsMax =   3.55999951739960E-13  7.61765382014674E-02
 cg2d: Sum(rhs),rhsMax =  -1.88314641658138E-13  7.62695073886887E-02
 cg2d: Sum(rhs),rhsMax =  -2.10623185559200E-13  7.63630678459822E-02
 cg2d: Sum(rhs),rhsMax =  -3.65998897855491E-13  7.64572117243652E-02
 cg2d: Sum(rhs),rhsMax =   2.17374729327702E-13  7.65519007764390E-02
 cg2d: Sum(rhs),rhsMax =  -3.13506165472432E-13  7.66470719831202E-02
 cg2d: Sum(rhs),rhsMax =  -3.82853471148081E-13  7.67426649076852E-02
 cg2d: Sum(rhs),rhsMax =   3.91284227241329E-14  7.68386121660542E-02
 cg2d: Sum(rhs),rhsMax =  -3.82659182118772E-13  7.69348378872932E-02
 cg2d: Sum(rhs),rhsMax =   4.47884784815500E-13  7.70312572866829E-02
 cg2d: Sum(rhs),rhsMax =   2.68216004961630E-13  7.71277773908462E-02
 cg2d: Sum(rhs),rhsMax =  -9.18640163938278E-14  7.72242987383876E-02
 cg2d: Sum(rhs),rhsMax =   9.06497099606440E-14  7.73207179324639E-02
 cg2d: Sum(rhs),rhsMax =  -3.79779541148650E-13  7.74169311665016E-02
 cg2d: Sum(rhs),rhsMax =   5.46264422585097E-13  7.75128405662875E-02
 cg2d: Sum(rhs),rhsMax =  -5.97716320882569E-14  7.76083563119860E-02
 cg2d: Sum(rhs),rhsMax =   5.11882203291236E-14  7.77033999645354E-02
 cg2d: Sum(rhs),rhsMax =   4.43950431971984E-14  7.77979015440437E-02
 cg2d: Sum(rhs),rhsMax =   1.50157664080552E-13  7.78918019949739E-02
 cg2d: Sum(rhs),rhsMax =   1.72799274889002E-13  7.79850526867272E-02
 cg2d: Sum(rhs),rhsMax =  -4.08673095364520E-13  7.80776166945501E-02
 cg2d: Sum(rhs),rhsMax =   3.58976737224737E-13  7.81694703515730E-02
 cg2d: Sum(rhs),rhsMax =  -1.14623588398644E-13  7.82606044549522E-02
 cg2d: Sum(rhs),rhsMax =   5.40748001931490E-14  7.83510247597737E-02
 cg2d: Sum(rhs),rhsMax =  -7.64187324531207E-13  7.84407517325855E-02
 cg2d: Sum(rhs),rhsMax =  -2.40134301332517E-13  7.85298196953575E-02
 cg2d: Sum(rhs),rhsMax =  -2.37539155012456E-13  7.86182755255453E-02
 cg2d: Sum(rhs),rhsMax =  -4.06855105161696E-13  7.87061771858941E-02
 cg2d: Sum(rhs),rhsMax =  -6.09998163092484E-14  7.87935913520097E-02
 cg2d: Sum(rhs),rhsMax =  -3.27661509036403E-13  7.88805910655263E-02
 cg2d: Sum(rhs),rhsMax =   2.91718038614164E-13  7.89672534807147E-02
 cg2d: Sum(rhs),rhsMax =  -4.94597418576603E-13  7.90536572251132E-02
 cg2d: Sum(rhs),rhsMax =  -1.10869646796630E-13  7.91398792246383E-02
 cg2d: Sum(rhs),rhsMax =   4.40480985020031E-14  7.92259940383432E-02
 cg2d: Sum(rhs),rhsMax =   1.08003883614316E-13  7.93120693490080E-02
 cg2d: Sum(rhs),rhsMax =  -1.23803745033513E-13  7.93981643136872E-02
 cg2d: Sum(rhs),rhsMax =   1.92408589061444E-13  7.94843280469365E-02
 cg2d: Sum(rhs),rhsMax =  -3.42469108627341E-13  7.95705986946846E-02
 cg2d: Sum(rhs),rhsMax =   5.16219011981178E-13  7.96570024771051E-02
 cg2d: Sum(rhs),rhsMax =  -7.42461647718073E-15  7.97435524780591E-02
 cg2d: Sum(rhs),rhsMax =  -1.97460103823488E-13  7.98302485200515E-02
 cg2d: Sum(rhs),rhsMax =  -1.27793609028259E-13  7.99170770656448E-02
 cg2d: Sum(rhs),rhsMax =  -2.17888207476591E-13  8.00040113615255E-02
 cg2d: Sum(rhs),rhsMax =  -4.96117036341559E-13  8.00910118961499E-02
 cg2d: Sum(rhs),rhsMax =   2.29261054585095E-14  8.01780273648786E-02
 cg2d: Sum(rhs),rhsMax =   8.60769788779692E-14  8.02649961897703E-02
 cg2d: Sum(rhs),rhsMax =   1.66491820330350E-13  8.03518482895444E-02
 cg2d: Sum(rhs),rhsMax =   3.56957519098700E-13  8.04385070261300E-02
 cg2d: Sum(rhs),rhsMax =   3.25690863167694E-13  8.05248912330030E-02
 cg2d: Sum(rhs),rhsMax =   1.18030585305462E-13  8.06109170020936E-02
 cg2d: Sum(rhs),rhsMax =  -1.67393876537858E-13  8.06964996542204E-02
 cg2d: Sum(rhs),rhsMax =   7.20062898196261E-13  8.07815560849870E-02
 cg2d: Sum(rhs),rhsMax =  -4.00596222860372E-13  8.08660075879306E-02
 cg2d: Sum(rhs),rhsMax =   1.30576105483726E-13  8.09497830435235E-02
 cg2d: Sum(rhs),rhsMax =  -4.91801044333329E-13  8.10328221939339E-02
 cg2d: Sum(rhs),rhsMax =  -4.31689406443780E-13  8.11150785356192E-02
 cg2d: Sum(rhs),rhsMax =   1.71515579516779E-13  8.11965214617366E-02
 cg2d: Sum(rhs),rhsMax =  -9.85739267989061E-14  8.12771376473212E-02
 cg2d: Sum(rhs),rhsMax =   1.88862814276547E-13  8.13569317802824E-02
 cg2d: Sum(rhs),rhsMax =  -1.32713284806130E-13  8.14359264334524E-02
 cg2d: Sum(rhs),rhsMax =   3.74526798463393E-13  8.15141611673651E-02
 cg2d: Sum(rhs),rhsMax =   1.30957744648441E-13  8.15916910485608E-02
 cg2d: Sum(rhs),rhsMax =  -2.24681384608516E-14  8.16685848037837E-02
 cg2d: Sum(rhs),rhsMax =  -2.03954908517545E-13  8.17449251837746E-02
 cg2d: Sum(rhs),rhsMax =  -5.97175087158064E-13  8.18207992548738E-02
 cg2d: Sum(rhs),rhsMax =   6.14369666251946E-14  8.18963026557024E-02
 cg2d: Sum(rhs),rhsMax =  -1.93484117616549E-13  8.19715354905230E-02
 cg2d: Sum(rhs),rhsMax =  -1.87523607753093E-13  8.20465995316739E-02
 cg2d: Sum(rhs),rhsMax =   2.50799381262823E-13  8.21215951517381E-02
 cg2d: Sum(rhs),rhsMax =  -7.75907116334906E-14  8.21966182078700E-02
 cg2d: Sum(rhs),rhsMax =   1.21083698623181E-13  8.22717572739503E-02
 cg2d: Sum(rhs),rhsMax =   1.33774935573427E-13  8.23470889867011E-02
 cg2d: Sum(rhs),rhsMax =   1.77816095181527E-13  8.24226830082507E-02
 cg2d: Sum(rhs),rhsMax =   1.55049584282807E-13  8.24985944714217E-02
 cg2d: Sum(rhs),rhsMax =   2.23016050071578E-14  8.25748645504537E-02
 cg2d: Sum(rhs),rhsMax =   2.55448440178441E-13  8.26515194996043E-02
 cg2d: Sum(rhs),rhsMax =  -5.06733544014537E-13  8.27285700692425E-02
 cg2d: Sum(rhs),rhsMax =   8.88247808639164E-14  8.28060114416982E-02
 cg2d: Sum(rhs),rhsMax =  -1.47083734081122E-13  8.28838236681894E-02
 cg2d: Sum(rhs),rhsMax =  -5.04672692525077E-13  8.29619637771913E-02
 cg2d: Sum(rhs),rhsMax =   4.58043325490820E-13  8.30403674219585E-02
 cg2d: Sum(rhs),rhsMax =   1.48984991010792E-13  8.31189751805209E-02
 cg2d: Sum(rhs),rhsMax =   2.11643202963074E-13  8.31977230588157E-02
 cg2d: Sum(rhs),rhsMax =  -1.67976743625786E-13  8.32765401668969E-02
 cg2d: Sum(rhs),rhsMax =   2.48509546274533E-13  8.33553468866768E-02
 cg2d: Sum(rhs),rhsMax =   2.20080897950226E-13  8.34340544469415E-02
 cg2d: Sum(rhs),rhsMax =  -1.78829173691497E-13  8.35125682756045E-02
 cg2d: Sum(rhs),rhsMax =   2.17235951449624E-13  8.35907905459423E-02
 cg2d: Sum(rhs),rhsMax =   2.47864229141470E-13  8.36686218272974E-02
 cg2d: Sum(rhs),rhsMax =  -5.83144643684363E-14  8.37459640250938E-02
 cg2d: Sum(rhs),rhsMax =  -9.65616475667730E-14  8.38227200282586E-02
 cg2d: Sum(rhs),rhsMax =   2.60236276972137E-13  8.38987972230106E-02
 cg2d: Sum(rhs),rhsMax =   7.78752062835508E-14  8.39741111120110E-02
 cg2d: Sum(rhs),rhsMax =  -4.48877046643759E-14  8.40485883847533E-02
 cg2d: Sum(rhs),rhsMax =  -4.97747676408977E-13  8.41221692017113E-02
 cg2d: Sum(rhs),rhsMax =  -4.08978406696292E-14  8.41948088126815E-02
 cg2d: Sum(rhs),rhsMax =  -3.13110648519910E-13  8.42664788017660E-02
 cg2d: Sum(rhs),rhsMax =  -2.41737185824320E-13  8.43371681810305E-02
 cg2d: Sum(rhs),rhsMax =   2.17839635219264E-13  8.44068844813159E-02
 cg2d: Sum(rhs),rhsMax =   2.51056120337267E-13  8.44756545611811E-02
 cg2d: Sum(rhs),rhsMax =   1.21729015756245E-13  8.45435248209925E-02
 cg2d: Sum(rhs),rhsMax =  -4.05578348683377E-14  8.46105606459717E-02
 cg2d: Sum(rhs),rhsMax =   4.76840789076505E-14  8.46768450422940E-02
 cg2d: Sum(rhs),rhsMax =   2.01602623484121E-13  8.47424765590123E-02
 cg2d: Sum(rhs),rhsMax =   2.79130885072476E-13  8.48075666312493E-02
 cg2d: Sum(rhs),rhsMax =   6.34908792207511E-15  8.48722371997619E-02
 cg2d: Sum(rhs),rhsMax =  -4.91551244152788E-14  8.49366152326554E-02
 cg2d: Sum(rhs),rhsMax =  -4.04919153762506E-13  8.50008317155800E-02
 cg2d: Sum(rhs),rhsMax =   7.08891279010970E-13  8.50650175356810E-02
 cg2d: Sum(rhs),rhsMax =  -6.84868828315643E-15  8.51293000006937E-02
 cg2d: Sum(rhs),rhsMax =  -4.67008376414668E-13  8.51937996030688E-02
 cg2d: Sum(rhs),rhsMax =   1.47833134622744E-13  8.52586271052488E-02
 cg2d: Sum(rhs),rhsMax =  -4.04030975342806E-13  8.53238810631366E-02
 cg2d: Sum(rhs),rhsMax =  -1.04784236842903E-13  8.53896455544548E-02
 cg2d: Sum(rhs),rhsMax =  -4.53068138561719E-13  8.54559899763528E-02
 cg2d: Sum(rhs),rhsMax =   2.36616282123236E-13  8.55229662189472E-02
 cg2d: Sum(rhs),rhsMax =   4.16930379110170E-13  8.55906081510403E-02
 cg2d: Sum(rhs),rhsMax =  -3.93539367760098E-13  8.56589311784588E-02
 cg2d: Sum(rhs),rhsMax =   1.32768795957361E-13  8.57279321864253E-02
 cg2d: Sum(rhs),rhsMax =   1.29042609930963E-13  8.57975898496810E-02
 cg2d: Sum(rhs),rhsMax =  -4.05779576606591E-13  8.58678653204276E-02
 cg2d: Sum(rhs),rhsMax =   1.26711141579250E-13  8.59387032658894E-02
 cg2d: Sum(rhs),rhsMax =  -3.26287608043430E-13  8.60100332153251E-02
 cg2d: Sum(rhs),rhsMax =   3.60406149368941E-13  8.60817711496906E-02
 cg2d: Sum(rhs),rhsMax =  -1.41650580154362E-13  8.61538212728943E-02
 cg2d: Sum(rhs),rhsMax =   8.82280359881804E-14  8.62260779201174E-02
 cg2d: Sum(rhs),rhsMax =  -5.69613800571744E-13  8.62984271575721E-02
 cg2d: Sum(rhs),rhsMax =   3.42101347250434E-13  8.63707500334552E-02
 cg2d: Sum(rhs),rhsMax =  -3.65096841647983E-13  8.64429247010340E-02
 cg2d: Sum(rhs),rhsMax =   3.11507764028107E-13  8.65148297375326E-02
 cg2d: Sum(rhs),rhsMax =   6.21239171216814E-14  8.65863445227776E-02
 cg2d: Sum(rhs),rhsMax =  -3.41005002013617E-13  8.72628187751804E-02
 cg2d: Sum(rhs),rhsMax =   2.31412111695306E-13  8.79850204099585E-02
 cg2d: Sum(rhs),rhsMax =  -3.25683924273790E-13  8.87099367370963E-02
 cg2d: Sum(rhs),rhsMax =  -6.30870355955437E-13  8.94340777389818E-02
 cg2d: Sum(rhs),rhsMax =  -1.60926827419416E-13  9.01542655962766E-02
 cg2d: Sum(rhs),rhsMax =  -3.05380720710957E-14  9.08678408830578E-02
 cg2d: Sum(rhs),rhsMax =  -1.10016162846449E-13  9.15731280389593E-02
 cg2d: Sum(rhs),rhsMax =  -5.43246003736897E-14  9.22678764007781E-02
 cg2d: Sum(rhs),rhsMax =  -8.70553629184201E-14  9.29502395837215E-02
 cg2d: Sum(rhs),rhsMax =   4.21364332314766E-13  9.36149266210281E-02
 cg2d: Sum(rhs),rhsMax =  -4.24563162404468E-13  9.42617904070756E-02
 cg2d: Sum(rhs),rhsMax =   3.22929183393939E-13  9.48908564755723E-02
 cg2d: Sum(rhs),rhsMax =   3.10862446895044E-13  9.55023785916575E-02
 cg2d: Sum(rhs),rhsMax =  -2.30357399821912E-13  9.60954410960625E-02
 cg2d: Sum(rhs),rhsMax =  -2.19498030862297E-13  9.66719671276566E-02
 cg2d: Sum(rhs),rhsMax =  -1.89785687165767E-13  9.72348635194090E-02
 cg2d: Sum(rhs),rhsMax =   2.41889841490206E-13  9.77877215399956E-02
 cg2d: Sum(rhs),rhsMax =   5.64201463326697E-14  9.83339145649072E-02
 cg2d: Sum(rhs),rhsMax =  -2.50077736296817E-14  9.88722185414568E-02
 cg2d: Sum(rhs),rhsMax =   4.58112714429859E-13  9.94063724153078E-02
 cg2d: Sum(rhs),rhsMax =  -3.91839338753641E-14  9.99396620787931E-02
 cg2d: Sum(rhs),rhsMax =   1.46334333539500E-13  1.00475594831955E-01
 cg2d: Sum(rhs),rhsMax =   5.89965576391904E-13  1.01017668995095E-01
 cg2d: Sum(rhs),rhsMax =  -3.21846715944929E-13  1.01569200083543E-01
 cg2d: Sum(rhs),rhsMax =   1.09551256954887E-13  1.02132827882099E-01
 cg2d: Sum(rhs),rhsMax =   3.88300502862649E-13  1.02711348681551E-01
 cg2d: Sum(rhs),rhsMax =  -2.03927152941930E-13  1.03306970384814E-01
 cg2d: Sum(rhs),rhsMax =  -9.72208424876442E-14  1.03919547815248E-01
 cg2d: Sum(rhs),rhsMax =   1.17100773522338E-13  1.04551741284187E-01
 cg2d: Sum(rhs),rhsMax =  -7.65359997600967E-15  1.05204286144418E-01
 cg2d: Sum(rhs),rhsMax =   2.25555685240408E-13  1.05876235676475E-01
 cg2d: Sum(rhs),rhsMax =   2.82725232114700E-13  1.06565297404734E-01
 cg2d: Sum(rhs),rhsMax =   4.03573008345148E-13  1.07268761708749E-01
 cg2d: Sum(rhs),rhsMax =   4.52245879634106E-13  1.07986303798780E-01
 cg2d: Sum(rhs),rhsMax =   1.82524134695328E-13  1.08718197328141E-01
 cg2d: Sum(rhs),rhsMax =  -7.52869988573934E-16  1.09463032691602E-01
 cg2d: Sum(rhs),rhsMax =  -4.72882150104326E-13  1.10219791451732E-01
 cg2d: Sum(rhs),rhsMax =   7.77850006628000E-14  1.10987313561046E-01
 cg2d: Sum(rhs),rhsMax =   6.22175921893842E-14  1.11764267531245E-01
 cg2d: Sum(rhs),rhsMax =   2.53533305460962E-13  1.12549172972458E-01
 cg2d: Sum(rhs),rhsMax =  -1.81889225903120E-13  1.13340356583364E-01
 cg2d: Sum(rhs),rhsMax =   1.21722076862341E-13  1.14135848341159E-01
 cg2d: Sum(rhs),rhsMax =   1.98938088225020E-14  1.14933034637665E-01
 cg2d: Sum(rhs),rhsMax =  -2.76671047183541E-13  1.15730419621554E-01
 cg2d: Sum(rhs),rhsMax =  -5.31449884100255E-14  1.16526561956521E-01
 cg2d: Sum(rhs),rhsMax =  -2.65364119567124E-13  1.17318090636318E-01
 cg2d: Sum(rhs),rhsMax =   2.03968786305353E-14  1.18103592067422E-01
 cg2d: Sum(rhs),rhsMax =   7.68760055613882E-14  1.18882429532059E-01
 cg2d: Sum(rhs),rhsMax =   1.09356967925578E-14  1.19653277628620E-01
 cg2d: Sum(rhs),rhsMax =   2.56843157853126E-14  1.20414232007011E-01
 cg2d: Sum(rhs),rhsMax =   7.41663674919124E-14  1.21164115899833E-01
 cg2d: Sum(rhs),rhsMax =   2.46764414457701E-13  1.21903070234586E-01
 cg2d: Sum(rhs),rhsMax =  -1.84467024988422E-13  1.22631677188063E-01
 cg2d: Sum(rhs),rhsMax =  -1.25389282290556E-13  1.23350537708052E-01
 cg2d: Sum(rhs),rhsMax =   2.49029963317327E-13  1.24058751812623E-01
 cg2d: Sum(rhs),rhsMax =  -2.40429204323434E-13  1.24754430905157E-01
 cg2d: Sum(rhs),rhsMax =   2.06851896722426E-13  1.25440185208511E-01
 cg2d: Sum(rhs),rhsMax =  -1.71664765735713E-13  1.26146302392624E-01
 cg2d: Sum(rhs),rhsMax =   6.12218609141735E-14  1.26999339118710E-01
 cg2d: Sum(rhs),rhsMax =   7.81388842518993E-14  1.27837479273602E-01
 cg2d: Sum(rhs),rhsMax =  -2.61214661012588E-14  1.28658887285732E-01
 cg2d: Sum(rhs),rhsMax =   4.14338702237060E-13  1.29462898216975E-01
 cg2d: Sum(rhs),rhsMax =   3.36560640468164E-13  1.30247610296335E-01
 cg2d: Sum(rhs),rhsMax =   1.27703403407509E-13  1.31013067640531E-01
 cg2d: Sum(rhs),rhsMax =   1.40658318326103E-13  1.31757389270587E-01
 cg2d: Sum(rhs),rhsMax =  -3.04874181455972E-13  1.32480304838042E-01
 cg2d: Sum(rhs),rhsMax =  -8.93764229292771E-14  1.33183129090293E-01
 cg2d: Sum(rhs),rhsMax =  -2.07830280762877E-13  1.33867721036017E-01
 cg2d: Sum(rhs),rhsMax =   1.01627040116625E-13  1.34536496500482E-01
 cg2d: Sum(rhs),rhsMax =   1.08951042632199E-13  1.35368110798472E-01
 cg2d: Sum(rhs),rhsMax =  -3.07670555699247E-14  1.36220425717570E-01
 cg2d: Sum(rhs),rhsMax =  -2.38555702969379E-13  1.37073522052311E-01
 cg2d: Sum(rhs),rhsMax =   3.36536354339501E-16  1.37927416512373E-01
 cg2d: Sum(rhs),rhsMax =  -1.53280166337311E-14  1.38781588965729E-01
 cg2d: Sum(rhs),rhsMax =  -1.42382633461224E-13  1.39635270320649E-01
 cg2d: Sum(rhs),rhsMax =  -1.66984481797527E-14  1.40487573404978E-01
 cg2d: Sum(rhs),rhsMax =   9.42614042376277E-14  1.41337873779045E-01
 cg2d: Sum(rhs),rhsMax =   8.03489219602938E-14  1.42187436043472E-01
 cg2d: Sum(rhs),rhsMax =  -8.79747663606878E-14  1.43034442550325E-01
 cg2d: Sum(rhs),rhsMax =  -9.34495536508706E-14  1.43878020468321E-01
 cg2d: Sum(rhs),rhsMax =  -1.40183004093686E-13  1.44718407656405E-01
 cg2d: Sum(rhs),rhsMax =  -2.14227940942280E-13  1.45555156346706E-01
 cg2d: Sum(rhs),rhsMax =   6.38863961732739E-14  1.46388227757740E-01
 cg2d: Sum(rhs),rhsMax =  -1.40703421136479E-13  1.47217880951695E-01
 cg2d: Sum(rhs),rhsMax =  -5.57574819648465E-14  1.48045617322181E-01
 cg2d: Sum(rhs),rhsMax =   1.05221387158849E-13  1.48871565681169E-01
 cg2d: Sum(rhs),rhsMax =  -8.34228519597247E-14  1.49695892882485E-01
 cg2d: Sum(rhs),rhsMax =   5.99659211175663E-14  1.50519316437454E-01
 cg2d: Sum(rhs),rhsMax =   1.43409589759003E-13  1.51341687064957E-01
 cg2d: Sum(rhs),rhsMax =  -9.33385313484081E-14  1.52162692735685E-01
 cg2d: Sum(rhs),rhsMax =   7.50233208890450E-14  1.52987471985976E-01
 cg2d: Sum(rhs),rhsMax =   3.43978318051441E-13  1.53810605525200E-01
 cg2d: Sum(rhs),rhsMax =   1.16746889933239E-13  1.54634862324125E-01
 cg2d: Sum(rhs),rhsMax =   1.43877965097516E-14  1.55461061146750E-01
 cg2d: Sum(rhs),rhsMax =   1.73736025566029E-13  1.56290561831099E-01
 cg2d: Sum(rhs),rhsMax =  -1.32793082086025E-13  1.57124102489800E-01
 cg2d: Sum(rhs),rhsMax =  -2.82725232114700E-14  1.57962446474309E-01
 cg2d: Sum(rhs),rhsMax =  -1.53627111032506E-13  1.58806672234743E-01
 cg2d: Sum(rhs),rhsMax =   9.84282100269240E-15  1.59661412735110E-01
 cg2d: Sum(rhs),rhsMax =  -2.29993107891957E-13  1.60523585958829E-01
 cg2d: Sum(rhs),rhsMax =   2.23578100477795E-13  1.61394560234686E-01
 cg2d: Sum(rhs),rhsMax =  -2.35270136705878E-13  1.62274988990949E-01
 cg2d: Sum(rhs),rhsMax =   7.47769901554562E-14  1.63165684758346E-01
 cg2d: Sum(rhs),rhsMax =  -6.19261586454201E-14  1.64064720175055E-01
 cg2d: Sum(rhs),rhsMax =  -1.32706345912226E-14  1.64970463215959E-01
 cg2d: Sum(rhs),rhsMax =  -1.14333889578155E-13  1.65882467818572E-01
 cg2d: Sum(rhs),rhsMax =   1.10663214702988E-13  1.66799932474840E-01
 cg2d: Sum(rhs),rhsMax =   3.55960053100013E-13  1.67721099178021E-01
 cg2d: Sum(rhs),rhsMax =  -6.46965120365550E-14  1.68650282791839E-01
 cg2d: Sum(rhs),rhsMax =  -1.01262748186670E-13  1.69583635354045E-01
 cg2d: Sum(rhs),rhsMax =   1.42023545701697E-13  1.70518391333791E-01
 cg2d: Sum(rhs),rhsMax =   7.59062951383171E-14  1.71454884316503E-01
 cg2d: Sum(rhs),rhsMax =   1.78317430266084E-13  1.72392869643652E-01
 cg2d: Sum(rhs),rhsMax =  -1.44778286581548E-13  1.73332169872246E-01
 cg2d: Sum(rhs),rhsMax =   1.12361508985970E-13  1.74272138176897E-01
 cg2d: Sum(rhs),rhsMax =   1.13469997287119E-13  1.75212502991206E-01
 cg2d: Sum(rhs),rhsMax =  -6.65249105802346E-14  1.76152626529849E-01
 cg2d: Sum(rhs),rhsMax =  -1.11619047338252E-13  1.77091497892023E-01
 cg2d: Sum(rhs),rhsMax =   3.37958827589802E-14  1.78027913008706E-01
 cg2d: Sum(rhs),rhsMax =   8.17193535063154E-14  1.78959181968341E-01
 cg2d: Sum(rhs),rhsMax =   1.83551090993106E-14  1.79884665453075E-01
 cg2d: Sum(rhs),rhsMax =  -7.90704307584988E-14  1.80807626643531E-01
 cg2d: Sum(rhs),rhsMax =  -5.41129641096205E-14  1.81716307065163E-01
 cg2d: Sum(rhs),rhsMax =   2.46816456161980E-14  1.82612787655247E-01
 cg2d: Sum(rhs),rhsMax =  -2.48100151534203E-14  1.83500059622437E-01
 cg2d: Sum(rhs),rhsMax =   1.50580936608691E-13  1.84380995597225E-01
 cg2d: Sum(rhs),rhsMax =  -7.40674882537817E-14  1.85256798648570E-01
 cg2d: Sum(rhs),rhsMax =   7.64839580558174E-14  1.86129812267048E-01
 cg2d: Sum(rhs),rhsMax =   6.53765236391379E-14  1.87000942348026E-01
 cg2d: Sum(rhs),rhsMax =   2.27042343259320E-13  1.87872254069578E-01
 cg2d: Sum(rhs),rhsMax =  -1.52407600428894E-13  1.88745673938981E-01
 cg2d: Sum(rhs),rhsMax =   1.11900072541360E-13  1.89615292304714E-01
 cg2d: Sum(rhs),rhsMax =  -1.01620101222721E-14  1.90480965219240E-01
 cg2d: Sum(rhs),rhsMax =  -6.73246181026599E-14  1.91349233546505E-01
 cg2d: Sum(rhs),rhsMax =   1.59773236307892E-13  1.92216602044739E-01
 cg2d: Sum(rhs),rhsMax =  -3.41497663480794E-14  1.93077332357995E-01
 cg2d: Sum(rhs),rhsMax =   4.23671514537816E-14  1.93934976347458E-01
 cg2d: Sum(rhs),rhsMax =  -4.16021384008758E-14  1.94790185438015E-01
 cg2d: Sum(rhs),rhsMax =  -1.14261031192164E-13  1.95644948048075E-01
 cg2d: Sum(rhs),rhsMax =   8.97216329009964E-14  1.96501202021555E-01
 cg2d: Sum(rhs),rhsMax =  -8.70831184940357E-16  1.97363921879551E-01
 cg2d: Sum(rhs),rhsMax =   3.00072466874468E-14  1.98235393240920E-01
 cg2d: Sum(rhs),rhsMax =   1.52452703239270E-13  1.99118069657611E-01
 cg2d: Sum(rhs),rhsMax =  -2.12552198064486E-13  2.00021079817217E-01
 cg2d: Sum(rhs),rhsMax =  -1.66627128761476E-13  2.00935812786117E-01
 cg2d: Sum(rhs),rhsMax =   1.81151968425830E-13  2.01865401738653E-01
 cg2d: Sum(rhs),rhsMax =   3.03186295513846E-13  2.02810318226196E-01
 cg2d: Sum(rhs),rhsMax =  -3.95083271653718E-14  2.03771281964376E-01
 cg2d: Sum(rhs),rhsMax =   5.37937749900408E-15  2.04746965939012E-01
 cg2d: Sum(rhs),rhsMax =   1.33244110189779E-14  2.05737447464693E-01
 cg2d: Sum(rhs),rhsMax =  -1.40207290222349E-13  2.06734184996921E-01
 cg2d: Sum(rhs),rhsMax =  -8.78758871225571E-14  2.07733570540009E-01
 cg2d: Sum(rhs),rhsMax =  -4.89018547877862E-14  2.08739702763837E-01
 cg2d: Sum(rhs),rhsMax =  -1.93099009004882E-13  2.09750897913303E-01
 cg2d: Sum(rhs),rhsMax =   6.77079919908508E-14  2.10760162253918E-01
 cg2d: Sum(rhs),rhsMax =   6.85475981532235E-14  2.11769029543949E-01
 cg2d: Sum(rhs),rhsMax =  -5.00779973044985E-14  2.12776555286776E-01
 cg2d: Sum(rhs),rhsMax =   2.19713136573318E-13  2.13779574494391E-01
 cg2d: Sum(rhs),rhsMax =  -9.65061364155417E-14  2.14776289483012E-01
 cg2d: Sum(rhs),rhsMax =  -1.04916075827077E-14  2.15766091678896E-01
 cg2d: Sum(rhs),rhsMax =   7.31567584288939E-14  2.16746983042387E-01
 cg2d: Sum(rhs),rhsMax =   6.05349104176867E-14  2.17717558793262E-01
 cg2d: Sum(rhs),rhsMax =   6.08020578329871E-15  2.18676137465941E-01
 cg2d: Sum(rhs),rhsMax =   1.70020247880487E-14  2.19621208347011E-01
 cg2d: Sum(rhs),rhsMax =   4.13783590724748E-14  2.20550869209191E-01
 cg2d: Sum(rhs),rhsMax =  -1.97140914703908E-13  2.21457505629811E-01
 cg2d: Sum(rhs),rhsMax =  -5.03295322085151E-14  2.22345807329735E-01
 cg2d: Sum(rhs),rhsMax =   5.86093673593524E-14  2.23202995852016E-01
 cg2d: Sum(rhs),rhsMax =  -7.90860432697826E-15  2.24037292040584E-01
 cg2d: Sum(rhs),rhsMax =  -3.87363752185621E-14  2.24855329898733E-01
 cg2d: Sum(rhs),rhsMax =   2.12992817827384E-13  2.25661402913545E-01
 cg2d: Sum(rhs),rhsMax =  -8.00678967571855E-14  2.26459433328603E-01
 cg2d: Sum(rhs),rhsMax =  -1.69829428298129E-14  2.27251555910279E-01
 cg2d: Sum(rhs),rhsMax =  -1.36023137198293E-13  2.28042055022353E-01
 cg2d: Sum(rhs),rhsMax =   6.83463702300102E-14  2.28833886267076E-01
 cg2d: Sum(rhs),rhsMax =  -1.02751140929058E-13  2.29628908913302E-01
 cg2d: Sum(rhs),rhsMax =   8.61220816883446E-14  2.30430948295318E-01
 cg2d: Sum(rhs),rhsMax =   6.62490895475543E-15  2.31243512352638E-01
 cg2d: Sum(rhs),rhsMax =  -1.19154686117895E-13  2.32063659455671E-01
 cg2d: Sum(rhs),rhsMax =  -1.15992285221189E-13  2.32873029671701E-01
 cg2d: Sum(rhs),rhsMax =   7.21176590667838E-14  2.33681986141631E-01
 cg2d: Sum(rhs),rhsMax =   2.18523116268798E-13  2.34493555572516E-01
 cg2d: Sum(rhs),rhsMax =  -4.97241137153992E-14  2.35310913846149E-01
 cg2d: Sum(rhs),rhsMax =   1.07861636289286E-13  2.36136122236097E-01
 cg2d: Sum(rhs),rhsMax =  -7.14116266120612E-14  2.36968904773791E-01
 cg2d: Sum(rhs),rhsMax =  -4.00790511889682E-14  2.37812709610496E-01
 cg2d: Sum(rhs),rhsMax =  -3.11757564208648E-13  2.38671398190813E-01
 cg2d: Sum(rhs),rhsMax =  -2.27663374263720E-13  2.39548824161145E-01
 cg2d: Sum(rhs),rhsMax =   4.08891670522493E-14  2.40457450861345E-01
 cg2d: Sum(rhs),rhsMax =  -1.91974908192449E-13  2.41380116884901E-01
 cg2d: Sum(rhs),rhsMax =  -1.89468232769663E-13  2.42323651165585E-01
 cg2d: Sum(rhs),rhsMax =  -1.06590083981395E-13  2.43289061000144E-01
 cg2d: Sum(rhs),rhsMax =   6.69447136614210E-14  2.44274870437988E-01
 cg2d: Sum(rhs),rhsMax =  -1.12160281062756E-13  2.45278662999145E-01
 cg2d: Sum(rhs),rhsMax =   1.68337566108789E-14  2.46297599109443E-01
 cg2d: Sum(rhs),rhsMax =  -1.36234773462363E-13  2.47328212976139E-01
 cg2d: Sum(rhs),rhsMax =   1.32393228324812E-13  2.48365490234828E-01
 cg2d: Sum(rhs),rhsMax =   8.65193333643433E-14  2.49400888144495E-01
 cg2d: Sum(rhs),rhsMax =   1.53891656362592E-13  2.50428007072140E-01
 cg2d: Sum(rhs),rhsMax =   1.22731685925359E-14  2.51449189814072E-01
 cg2d: Sum(rhs),rhsMax =  -1.27938458438503E-13  2.52459531180862E-01
 cg2d: Sum(rhs),rhsMax =  -3.13143608265953E-14  2.53455745621751E-01
 cg2d: Sum(rhs),rhsMax =  -3.63797533764476E-14  2.54435888419866E-01
 cg2d: Sum(rhs),rhsMax =  -1.27523859527745E-13  2.55396922725465E-01
 cg2d: Sum(rhs),rhsMax =   1.22238157096444E-13  2.56338140846133E-01
 cg2d: Sum(rhs),rhsMax =   6.16390619101459E-14  2.57262032657510E-01
 cg2d: Sum(rhs),rhsMax =  -2.25791607633141E-13  2.58169174839958E-01
 cg2d: Sum(rhs),rhsMax =  -1.24110791088761E-13  2.59052170110647E-01
 cg2d: Sum(rhs),rhsMax =  -6.67001176513082E-16  2.59910260935140E-01
 cg2d: Sum(rhs),rhsMax =   5.33106545019812E-14  2.60743030192341E-01
 cg2d: Sum(rhs),rhsMax =  -4.99704444489879E-14  2.61734845475887E-01
 cg2d: Sum(rhs),rhsMax =  -3.44273221042357E-13  2.62779505148060E-01
 cg2d: Sum(rhs),rhsMax =  -1.35023069114393E-13  2.63822446345732E-01
 cg2d: Sum(rhs),rhsMax =  -1.05035771746920E-13  2.64869060878078E-01
 cg2d: Sum(rhs),rhsMax =  -1.19626530903361E-13  2.65911415995191E-01
 cg2d: Sum(rhs),rhsMax =   1.06231863583606E-13  2.66952267505113E-01
 cg2d: Sum(rhs),rhsMax =   2.92385907152415E-13  2.67991911886115E-01
 cg2d: Sum(rhs),rhsMax =   1.62370117351429E-13  2.69031171282007E-01
 cg2d: Sum(rhs),rhsMax =  -5.21440529643868E-14  2.70071306613549E-01
 cg2d: Sum(rhs),rhsMax =  -4.13957063072345E-14  2.71116938242481E-01
 cg2d: Sum(rhs),rhsMax =  -8.98985746955461E-14  2.72168751817501E-01
 cg2d: Sum(rhs),rhsMax =  -3.19570758744447E-14  2.73227340391380E-01
 cg2d: Sum(rhs),rhsMax =  -6.09720607336328E-14  2.74286909915236E-01
 cg2d: Sum(rhs),rhsMax =   7.58473145401339E-14  2.75339159964557E-01
 cg2d: Sum(rhs),rhsMax =  -7.87963444492945E-14  2.76385674900674E-01
 cg2d: Sum(rhs),rhsMax =   1.10906943351363E-13  2.77428543453001E-01
 cg2d: Sum(rhs),rhsMax =  -1.54808457719646E-13  2.78469810972420E-01
 cg2d: Sum(rhs),rhsMax =   9.04918501243301E-14  2.79511958853273E-01
 cg2d: Sum(rhs),rhsMax =   5.27390631166469E-14  2.80557660343712E-01
 cg2d: Sum(rhs),rhsMax =  -2.95111157733174E-14  2.81609461056514E-01
 cg2d: Sum(rhs),rhsMax =  -4.18293871762287E-14  2.82665351996496E-01
 cg2d: Sum(rhs),rhsMax =   1.14555066821342E-13  2.83718085171561E-01
 cg2d: Sum(rhs),rhsMax =  -3.48323800358763E-14  2.84769416850824E-01
 cg2d: Sum(rhs),rhsMax =  -1.24613860896794E-14  2.85821810279699E-01
 cg2d: Sum(rhs),rhsMax =  -4.73683592350227E-14  2.86871449722656E-01
 cg2d: Sum(rhs),rhsMax =  -1.32243174744140E-13  2.87907481257203E-01
 cg2d: Sum(rhs),rhsMax =  -1.14127457484514E-14  2.88930171175616E-01
 cg2d: Sum(rhs),rhsMax =  -3.11079287329541E-14  2.89943758154147E-01
 cg2d: Sum(rhs),rhsMax =  -1.13132593571041E-13  2.90952926162848E-01
 cg2d: Sum(rhs),rhsMax =  -2.84763532198973E-14  2.91959290092826E-01
 cg2d: Sum(rhs),rhsMax =  -1.69794733828610E-14  2.92964714094082E-01
 cg2d: Sum(rhs),rhsMax =  -2.66505567614317E-14  2.93970819805010E-01
 cg2d: Sum(rhs),rhsMax =   7.56773116394882E-15  2.94984886925949E-01
 cg2d: Sum(rhs),rhsMax =   7.86818526998800E-14  2.96008266347554E-01
 cg2d: Sum(rhs),rhsMax =  -6.42454839328011E-14  2.97037356357451E-01
 cg2d: Sum(rhs),rhsMax =  -5.59352911211342E-14  2.98077135506471E-01
 cg2d: Sum(rhs),rhsMax =   3.18573292745761E-14  2.99129316535267E-01
 cg2d: Sum(rhs),rhsMax =   4.61549201635769E-14  3.00194549641427E-01
 cg2d: Sum(rhs),rhsMax =  -5.21692064547885E-14  3.01272450524004E-01
 cg2d: Sum(rhs),rhsMax =  -2.35141767168656E-15  3.02361596068019E-01
 cg2d: Sum(rhs),rhsMax =  -1.22704797711481E-13  3.03444763733971E-01
 cg2d: Sum(rhs),rhsMax =  -2.45133774390283E-14  3.04516985614015E-01
 cg2d: Sum(rhs),rhsMax =  -7.62619134508924E-14  3.05575746005184E-01
 cg2d: Sum(rhs),rhsMax =   2.18896081816133E-14  3.06619170879633E-01
 cg2d: Sum(rhs),rhsMax =  -4.60655819045641E-15  3.07646212866426E-01
 cg2d: Sum(rhs),rhsMax =  -8.31626434383281E-14  3.08656745344334E-01
 cg2d: Sum(rhs),rhsMax =  -4.05717126561456E-14  3.09649106115177E-01
 cg2d: Sum(rhs),rhsMax =   8.35737729021346E-14  3.10621956023075E-01
 cg2d: Sum(rhs),rhsMax =  -3.30421454086682E-14  3.11573167847074E-01
 cg2d: Sum(rhs),rhsMax =   5.03954517006022E-14  3.12501238626816E-01
 cg2d: Sum(rhs),rhsMax =  -3.87771412202476E-14  3.13406671620230E-01
 cg2d: Sum(rhs),rhsMax =   1.71290932826640E-13  3.14290191391753E-01
 cg2d: Sum(rhs),rhsMax =   7.40085076555985E-14  3.15154745014852E-01
 cg2d: Sum(rhs),rhsMax =  -1.40330455589144E-14  3.16008540745962E-01
 cg2d: Sum(rhs),rhsMax =  -7.38020755619573E-14  3.16860415121797E-01
 cg2d: Sum(rhs),rhsMax =   7.19892895295615E-14  3.17699185140051E-01
 cg2d: Sum(rhs),rhsMax =  -1.03281966312707E-13  3.18513302632273E-01
 cg2d: Sum(rhs),rhsMax =   2.94252469612566E-14  3.19311055023067E-01
 cg2d: Sum(rhs),rhsMax =  -1.30205742021605E-13  3.20098369426036E-01
 cg2d: Sum(rhs),rhsMax =  -5.80655315496337E-14  3.20880365345949E-01
 cg2d: Sum(rhs),rhsMax =  -5.89849349919014E-14  3.21662543481421E-01
 cg2d: Sum(rhs),rhsMax =   7.64050281376605E-14  3.22450661972418E-01
 cg2d: Sum(rhs),rhsMax =   1.08669150067353E-13  3.23250767313325E-01
 cg2d: Sum(rhs),rhsMax =  -9.66483837405718E-14  3.24066173426014E-01
 cg2d: Sum(rhs),rhsMax =   4.55972065660504E-14  3.24907307638345E-01
 cg2d: Sum(rhs),rhsMax =   6.09668565632049E-14  3.25755757543659E-01
 cg2d: Sum(rhs),rhsMax =  -1.16458058474489E-13  3.26611550528590E-01
 cg2d: Sum(rhs),rhsMax =   5.02107036504107E-14  3.27477804858936E-01
 cg2d: Sum(rhs),rhsMax =  -4.01458380427933E-14  3.28355499505550E-01
 cg2d: Sum(rhs),rhsMax =   8.04738220505641E-15  3.29242128729970E-01
 cg2d: Sum(rhs),rhsMax =  -6.38135377872828E-14  3.30138228174823E-01
 cg2d: Sum(rhs),rhsMax =  -1.07255350434432E-13  3.31032964141583E-01
 cg2d: Sum(rhs),rhsMax =   7.32270147296710E-14  3.31931699088571E-01
 cg2d: Sum(rhs),rhsMax =   2.65872393545585E-14  3.32839181868424E-01
 cg2d: Sum(rhs),rhsMax =  -2.37197414487689E-14  3.33756307415757E-01
 cg2d: Sum(rhs),rhsMax =  -3.74561492932912E-14  3.34679692138527E-01
 cg2d: Sum(rhs),rhsMax =  -9.99322152805959E-14  3.35612443669355E-01
 cg2d: Sum(rhs),rhsMax =   7.33111488182558E-14  3.36555703455387E-01
 cg2d: Sum(rhs),rhsMax =   2.15509034229289E-14  3.37517483999548E-01
 cg2d: Sum(rhs),rhsMax =  -9.83401728105182E-14  3.38501448859163E-01
 cg2d: Sum(rhs),rhsMax =   1.35997983707892E-14  3.39494681352884E-01
 cg2d: Sum(rhs),rhsMax =  -1.38201516203251E-13  3.40503563767708E-01
 cg2d: Sum(rhs),rhsMax =  -1.51077067522820E-13  3.41525596215480E-01
 cg2d: Sum(rhs),rhsMax =  -2.47770554073767E-14  3.42559192290728E-01
 cg2d: Sum(rhs),rhsMax =  -2.60035049048923E-15  3.43598333560871E-01
 cg2d: Sum(rhs),rhsMax =   1.00489495197253E-13  3.44641147768390E-01
 cg2d: Sum(rhs),rhsMax =  -6.73011993357342E-14  3.45657970564465E-01
 cg2d: Sum(rhs),rhsMax =  -1.77908902887491E-14  3.46645086252270E-01
 cg2d: Sum(rhs),rhsMax =   5.95782104206855E-14  3.47596988444659E-01
 cg2d: Sum(rhs),rhsMax =  -5.88027890269238E-14  3.48509200215211E-01
 cg2d: Sum(rhs),rhsMax =   6.12097178498416E-15  3.49390045012244E-01
 cg2d: Sum(rhs),rhsMax =   2.73656965144031E-14  3.50236451364523E-01
 cg2d: Sum(rhs),rhsMax =  -1.30212680915509E-14  3.51042720425509E-01
 cg2d: Sum(rhs),rhsMax =  -9.24781085043236E-15  3.51802463736119E-01
 cg2d: Sum(rhs),rhsMax =   7.00160415756379E-14  3.52520775300296E-01
 cg2d: Sum(rhs),rhsMax =  -3.50509551938494E-14  3.53195970680889E-01
 cg2d: Sum(rhs),rhsMax =  -5.04492281283575E-14  3.53831052363909E-01
 cg2d: Sum(rhs),rhsMax =  -3.39650182978879E-14  3.54429385700675E-01
 cg2d: Sum(rhs),rhsMax =  -9.33367966249321E-15  3.54994174199469E-01
 cg2d: Sum(rhs),rhsMax =  -1.99501873354713E-14  3.55528734086743E-01
 cg2d: Sum(rhs),rhsMax =   1.75892286846668E-14  3.56041150825615E-01
 cg2d: Sum(rhs),rhsMax =   6.60235754956773E-15  3.56538663808800E-01
 cg2d: Sum(rhs),rhsMax =   8.47525175040609E-14  3.57042232025295E-01
 cg2d: Sum(rhs),rhsMax =  -1.77418843505528E-14  3.57549159525403E-01
 cg2d: Sum(rhs),rhsMax =   4.25900634204446E-14  3.58055933875979E-01
 cg2d: Sum(rhs),rhsMax =  -1.49772555468886E-13  3.58562750570327E-01
 cg2d: Sum(rhs),rhsMax =  -2.58196242164388E-14  3.59072696778443E-01
 cg2d: Sum(rhs),rhsMax =   9.83744335991688E-14  3.59591715197775E-01
 cg2d: Sum(rhs),rhsMax =   6.69629282579187E-14  3.60127557027234E-01
 cg2d: Sum(rhs),rhsMax =   6.01602101468757E-15  3.60685705142881E-01
 cg2d: Sum(rhs),rhsMax =  -2.43017411749591E-14  3.61261165655682E-01
 cg2d: Sum(rhs),rhsMax =   3.91240859154429E-14  3.61807762172386E-01
 cg2d: Sum(rhs),rhsMax =   8.47317008223492E-14  3.62368428066726E-01
 cg2d: Sum(rhs),rhsMax =   1.40099737366839E-13  3.62946469593656E-01
 cg2d: Sum(rhs),rhsMax =  -8.08381139805192E-15  3.63542074433008E-01
 cg2d: Sum(rhs),rhsMax =  -9.21138165743685E-15  3.64158221450822E-01
 cg2d: Sum(rhs),rhsMax =  -2.41742389994748E-14  3.64799180149613E-01
 cg2d: Sum(rhs),rhsMax =   3.58983676118640E-14  3.65465868582521E-01
 cg2d: Sum(rhs),rhsMax =   3.45747735996937E-14  3.66159678026429E-01
 cg2d: Sum(rhs),rhsMax =  -1.51137782844479E-14  3.66885969744918E-01
 cg2d: Sum(rhs),rhsMax =   1.39987847702638E-14  3.67638744017946E-01
 cg2d: Sum(rhs),rhsMax =   2.95380039871951E-14  3.68424244312218E-01
 cg2d: Sum(rhs),rhsMax =   6.87991330572402E-15  3.69235287509695E-01
 cg2d: Sum(rhs),rhsMax =  -1.75071328961662E-13  3.70061668823870E-01
 cg2d: Sum(rhs),rhsMax =  -2.73587576204992E-14  3.70905855296302E-01
 cg2d: Sum(rhs),rhsMax =  -6.05635333550403E-16  3.71768415777666E-01
 cg2d: Sum(rhs),rhsMax =   2.07520632622415E-14  3.72647896192424E-01
 cg2d: Sum(rhs),rhsMax =  -7.70384190468265E-14  3.73541230896790E-01
 cg2d: Sum(rhs),rhsMax =   1.09027153624708E-13  3.74441682584062E-01
 cg2d: Sum(rhs),rhsMax =   9.83942202888166E-14  3.75345375099315E-01
 cg2d: Sum(rhs),rhsMax =   1.17525054019684E-13  3.76258914460474E-01
 cg2d: Sum(rhs),rhsMax =   3.41205470995309E-14  3.77171887517425E-01
 cg2d: Sum(rhs),rhsMax =   3.37885643943159E-14  3.78054421367404E-01
 cg2d: Sum(rhs),rhsMax =  -2.45398319720369E-15  3.78886842335267E-01
 cg2d: Sum(rhs),rhsMax =   7.43079642956390E-15  3.79667082384020E-01
 cg2d: Sum(rhs),rhsMax =   1.73595567174584E-13  3.80396165747655E-01
 cg2d: Sum(rhs),rhsMax =  -1.10637444572601E-14  3.81072066711551E-01
 cg2d: Sum(rhs),rhsMax =   6.77245802840898E-14  3.81703852009949E-01
 cg2d: Sum(rhs),rhsMax =  -3.82741798324315E-14  3.82290313342747E-01
 cg2d: Sum(rhs),rhsMax =  -1.74159731775037E-14  3.82818043131600E-01
 cg2d: Sum(rhs),rhsMax =   1.26066691807925E-13  3.83285432296629E-01
 cg2d: Sum(rhs),rhsMax =   1.17161488843998E-13  3.83690316061937E-01
 cg2d: Sum(rhs),rhsMax =  -2.23245900932145E-14  3.84039171331481E-01
 cg2d: Sum(rhs),rhsMax =  -1.20567618389078E-13  3.84329806645339E-01
 cg2d: Sum(rhs),rhsMax =  -1.84401105496335E-15  3.84579095314770E-01
 cg2d: Sum(rhs),rhsMax =   6.14222214756488E-14  3.84788977884133E-01
 cg2d: Sum(rhs),rhsMax =  -1.04329739292197E-13  3.84958866416619E-01
 cg2d: Sum(rhs),rhsMax =   5.20495105349461E-14  3.85101340780555E-01
 cg2d: Sum(rhs),rhsMax =   1.04744338202956E-13  3.85227949723527E-01
 cg2d: Sum(rhs),rhsMax =   4.02282374079022E-14  3.85354472064570E-01
 cg2d: Sum(rhs),rhsMax =  -3.24263185746965E-14  3.85495485429720E-01
 cg2d: Sum(rhs),rhsMax =   2.34369815221847E-14  3.85630952786604E-01
 cg2d: Sum(rhs),rhsMax =   1.00145586268141E-14  3.85782043131097E-01
 cg2d: Sum(rhs),rhsMax =  -7.05789593435924E-14  3.85953789823078E-01
 cg2d: Sum(rhs),rhsMax =   4.48079073844809E-14  3.86156674683968E-01
 cg2d: Sum(rhs),rhsMax =  -6.06025646332498E-15  3.86399849997011E-01
 cg2d: Sum(rhs),rhsMax =   5.37243860510017E-15  3.86688721974664E-01
 cg2d: Sum(rhs),rhsMax =  -2.10647471687864E-14  3.87178924957543E-01
 cg2d: Sum(rhs),rhsMax =   3.01880916098174E-14  3.88236231218261E-01
 cg2d: Sum(rhs),rhsMax =  -2.75721286080444E-14  3.89342909429066E-01
 cg2d: Sum(rhs),rhsMax =   8.41882986934994E-14  3.90446970450051E-01
 cg2d: Sum(rhs),rhsMax =   2.40779618465581E-15  3.91539850733228E-01
 cg2d: Sum(rhs),rhsMax =   9.62042945307218E-14  3.92616598302580E-01
 cg2d: Sum(rhs),rhsMax =   2.31394764460546E-14  3.93670149622953E-01
 cg2d: Sum(rhs),rhsMax =  -1.15315743065558E-14  3.94706127931717E-01
 cg2d: Sum(rhs),rhsMax =   2.26533201919121E-14  3.95716811388862E-01
 cg2d: Sum(rhs),rhsMax =   5.22021662008321E-14  3.96690132250863E-01
 cg2d: Sum(rhs),rhsMax =   5.49937699545477E-14  3.97615568221451E-01
 cg2d: Sum(rhs),rhsMax =   5.92937157706253E-14  3.98483760168927E-01
 cg2d: Sum(rhs),rhsMax =   1.21370361677586E-13  3.99288287371295E-01
 cg2d: Sum(rhs),rhsMax =   2.72329901684909E-15  4.00021658165589E-01
 cg2d: Sum(rhs),rhsMax =   1.83156441402321E-14  4.00675058761211E-01
 cg2d: Sum(rhs),rhsMax =  -4.23810292415894E-14  4.01244114459892E-01
 cg2d: Sum(rhs),rhsMax =  -2.33640147159764E-14  4.01724614671525E-01
 cg2d: Sum(rhs),rhsMax =  -1.42365150701193E-13  4.02114132447184E-01
 cg2d: Sum(rhs),rhsMax =  -4.81064840740508E-14  4.02412854037811E-01
 cg2d: Sum(rhs),rhsMax =   5.49625449319802E-14  4.02624008171858E-01
 cg2d: Sum(rhs),rhsMax =   1.85363877025502E-14  4.03010650285751E-01
 cg2d: Sum(rhs),rhsMax =   5.84569285339009E-14  4.03319036647199E-01
 cg2d: Sum(rhs),rhsMax =  -3.60800798959726E-14  4.03561727775491E-01
 cg2d: Sum(rhs),rhsMax =   5.85659992724530E-14  4.03753001278795E-01
 cg2d: Sum(rhs),rhsMax =   6.19339649010620E-15  4.03895369475916E-01
 cg2d: Sum(rhs),rhsMax =  -2.12685771772136E-14  4.03997416969209E-01
 cg2d: Sum(rhs),rhsMax =   5.89871033962464E-14  4.04070639147444E-01
 cg2d: Sum(rhs),rhsMax =  -1.09568604189647E-13  4.04130843642974E-01
 cg2d: Sum(rhs),rhsMax =   6.20605997148083E-14  4.04186469985915E-01
 cg2d: Sum(rhs),rhsMax =  -4.18111725797310E-14  4.04248445416085E-01
 cg2d: Sum(rhs),rhsMax =  -9.70369617991906E-14  4.04312817472188E-01
 cg2d: Sum(rhs),rhsMax =   1.00418371534738E-13  4.04379182270686E-01
 cg2d: Sum(rhs),rhsMax =  -2.95205483322181E-14  4.04453721785935E-01
 cg2d: Sum(rhs),rhsMax =   2.09462709763880E-14  4.04603014616831E-01
 cg2d: Sum(rhs),rhsMax =   7.06516008891489E-14  4.04711926337650E-01
 cg2d: Sum(rhs),rhsMax =  -1.51243817816948E-13  4.04796313908741E-01
 cg2d: Sum(rhs),rhsMax =   3.62340366044656E-14  4.04997206224931E-01
 cg2d: Sum(rhs),rhsMax =   5.65021120169096E-14  4.05263720964506E-01
 cg2d: Sum(rhs),rhsMax =  -1.40048563024298E-14  4.05597896004325E-01
 cg2d: Sum(rhs),rhsMax =  -2.73743701317830E-14  4.06010091972000E-01
 cg2d: Sum(rhs),rhsMax =   4.10409553563973E-14  4.06506100596837E-01
 cg2d: Sum(rhs),rhsMax =   1.04282901758346E-13  4.07090888480961E-01
 cg2d: Sum(rhs),rhsMax =   2.77330242104412E-14  4.07766434578565E-01
 cg2d: Sum(rhs),rhsMax =  -3.37143507556092E-15  4.08533885167153E-01
 cg2d: Sum(rhs),rhsMax =  -1.15072881778921E-14  4.09398243407202E-01
 cg2d: Sum(rhs),rhsMax =  -1.11208785236183E-14  4.10355105849833E-01
 cg2d: Sum(rhs),rhsMax =   6.27770405103867E-14  4.11398526259042E-01
 cg2d: Sum(rhs),rhsMax =   4.66714340785490E-14  4.12505497052648E-01
 cg2d: Sum(rhs),rhsMax =  -1.35206949802846E-13  4.13664572455411E-01
 cg2d: Sum(rhs),rhsMax =  -1.96019415976689E-14  4.14863403117785E-01
 cg2d: Sum(rhs),rhsMax =   4.50384087663513E-14  4.16095582132129E-01
 cg2d: Sum(rhs),rhsMax =  -5.15462238864783E-14  4.17349456715680E-01
 cg2d: Sum(rhs),rhsMax =   9.07640932898413E-14  4.18589648902083E-01
 cg2d: Sum(rhs),rhsMax =  -7.99041822291402E-14  4.19825224808871E-01
 cg2d: Sum(rhs),rhsMax =  -9.28228847951740E-14  4.20874431279325E-01
 cg2d: Sum(rhs),rhsMax =   5.52270902620666E-14  4.21874328886785E-01
 cg2d: Sum(rhs),rhsMax =   1.11322626464294E-14  4.22823017287958E-01
 cg2d: Sum(rhs),rhsMax =   2.54551696561578E-14  4.23714150712739E-01
 cg2d: Sum(rhs),rhsMax =  -3.16398383187755E-14  4.24542707619185E-01
 cg2d: Sum(rhs),rhsMax =   1.07697650710697E-13  4.25304547994314E-01
 cg2d: Sum(rhs),rhsMax =  -5.43306719058556E-14  4.25992345905014E-01
 cg2d: Sum(rhs),rhsMax =  -7.00599517636236E-14  4.26599758016027E-01
 cg2d: Sum(rhs),rhsMax =   1.44398382140309E-14  4.27121092537952E-01
 cg2d: Sum(rhs),rhsMax =  -5.24571705518007E-14  4.27547999298504E-01
 cg2d: Sum(rhs),rhsMax =  -1.07092069587256E-13  4.27878744815379E-01
 cg2d: Sum(rhs),rhsMax =  -2.88356578198590E-14  4.28106317582062E-01
 cg2d: Sum(rhs),rhsMax =  -6.86473447530922E-15  4.28237676959108E-01
 cg2d: Sum(rhs),rhsMax =  -5.69579106102225E-14  4.28267795231874E-01
 cg2d: Sum(rhs),rhsMax =   4.62533657208386E-14  4.28211901660160E-01
 cg2d: Sum(rhs),rhsMax =  -1.33872513768951E-13  4.28265447727004E-01
 cg2d: Sum(rhs),rhsMax =  -1.75354522569116E-14  4.28243031275964E-01
 cg2d: Sum(rhs),rhsMax =  -2.28601859664224E-14  4.28155530528494E-01
 cg2d: Sum(rhs),rhsMax =  -9.30978384661163E-14  4.28013992166697E-01
 cg2d: Sum(rhs),rhsMax =  -6.82180006927879E-14  4.27829172488349E-01
 cg2d: Sum(rhs),rhsMax =  -1.54027832155457E-13  4.27604524329540E-01
 cg2d: Sum(rhs),rhsMax =  -4.31226235275695E-14  4.27351279683753E-01
 cg2d: Sum(rhs),rhsMax =   4.70162103693994E-14  4.27067711034606E-01
 cg2d: Sum(rhs),rhsMax =  -4.57273108267486E-14  4.26759340331150E-01
 cg2d: Sum(rhs),rhsMax =  -3.47066125838680E-14  4.26436324882317E-01
 cg2d: Sum(rhs),rhsMax =  -3.25251978128271E-14  4.26103626209245E-01
 cg2d: Sum(rhs),rhsMax =   8.78203759713259E-15  4.25761453377130E-01
 cg2d: Sum(rhs),rhsMax =   2.14741419091169E-14  4.25423511271509E-01
 cg2d: Sum(rhs),rhsMax =   3.52513157553247E-14  4.25132887150928E-01
 cg2d: Sum(rhs),rhsMax =  -2.43893447104959E-14  4.24850433712442E-01
 cg2d: Sum(rhs),rhsMax =  -2.76931255704937E-14  4.24575897934177E-01
 cg2d: Sum(rhs),rhsMax =  -4.19412768404293E-14  4.24310445524631E-01
 cg2d: Sum(rhs),rhsMax =   4.62819886581922E-14  4.24067040016781E-01
 cg2d: Sum(rhs),rhsMax =  -3.33292421439424E-14  4.23862307696259E-01
 cg2d: Sum(rhs),rhsMax =  -4.93587375832716E-14  4.23702603222121E-01
 cg2d: Sum(rhs),rhsMax =   7.45562465931382E-15  4.23599466507700E-01
 cg2d: Sum(rhs),rhsMax =   8.18794287573029E-14  4.23557541852456E-01
 cg2d: Sum(rhs),rhsMax =  -3.01935126206798E-14  4.23581683579314E-01
 cg2d: Sum(rhs),rhsMax =  -5.67473585483258E-14  4.23670790375138E-01
 cg2d: Sum(rhs),rhsMax =  -1.40668509826525E-13  4.23827421403144E-01
 cg2d: Sum(rhs),rhsMax =  -1.98787384123045E-13  4.24046308276426E-01
 cg2d: Sum(rhs),rhsMax =   9.55670004937348E-14  4.24336025926144E-01
 cg2d: Sum(rhs),rhsMax =  -1.06354812109966E-13  4.24687272538944E-01
 cg2d: Sum(rhs),rhsMax =   3.32056430962790E-14  4.25099485966604E-01
 cg2d: Sum(rhs),rhsMax =  -8.19416149516750E-14  4.25572408273261E-01
 cg2d: Sum(rhs),rhsMax =  -3.13859181699794E-14  4.26099552354892E-01
 cg2d: Sum(rhs),rhsMax =  -7.73643302198757E-15  4.26686045651514E-01
 cg2d: Sum(rhs),rhsMax =   8.94100874067327E-14  4.27301143402827E-01
 cg2d: Sum(rhs),rhsMax =   8.87824427690809E-14  4.27930133765013E-01
 cg2d: Sum(rhs),rhsMax =   8.68379803828367E-14  4.28573646598065E-01
 cg2d: Sum(rhs),rhsMax =   2.03949270666248E-14  4.29205772466251E-01
 cg2d: Sum(rhs),rhsMax =  -7.68556225605455E-14  4.29841564758218E-01
 cg2d: Sum(rhs),rhsMax =  -8.72197279677689E-14  4.30435108612798E-01
 cg2d: Sum(rhs),rhsMax =  -9.96164956079681E-16  4.31010620136793E-01
 cg2d: Sum(rhs),rhsMax =   1.19009836707651E-13  4.31441243112358E-01
 cg2d: Sum(rhs),rhsMax =  -1.50539303245267E-14  4.31864688926014E-01
 cg2d: Sum(rhs),rhsMax =  -1.40807504545037E-14  4.32272556983816E-01
 cg2d: Sum(rhs),rhsMax =   3.21730489472039E-14  4.32680293354784E-01
 cg2d: Sum(rhs),rhsMax =  -9.67481303404405E-14  4.33038665145150E-01
 cg2d: Sum(rhs),rhsMax =  -9.86884185483206E-14  4.33344597115949E-01
 cg2d: Sum(rhs),rhsMax =  -6.60096977078695E-14  4.33615639152961E-01
 cg2d: Sum(rhs),rhsMax =   4.73319300420272E-14  4.33833234918496E-01
 cg2d: Sum(rhs),rhsMax =  -2.45021017364344E-14  4.33984960235326E-01
 cg2d: Sum(rhs),rhsMax =   1.52117034246668E-13  4.34074112038095E-01
 cg2d: Sum(rhs),rhsMax =  -6.68172114859367E-14  4.34090310362039E-01
 cg2d: Sum(rhs),rhsMax =  -2.17291462600855E-14  4.34024743384913E-01
 cg2d: Sum(rhs),rhsMax =   9.78843742172053E-14  4.33884641110564E-01
 cg2d: Sum(rhs),rhsMax =   1.56366239401073E-13  4.33647462791041E-01
 cg2d: Sum(rhs),rhsMax =  -1.45447889843275E-14  4.33323399972132E-01
 cg2d: Sum(rhs),rhsMax =   3.86366286186934E-14  4.32912453574261E-01
 cg2d: Sum(rhs),rhsMax =  -3.95681751252930E-14  4.32579220969294E-01
 cg2d: Sum(rhs),rhsMax =   1.68988087412281E-14  4.32171858025785E-01
 cg2d: Sum(rhs),rhsMax =   1.29468484544315E-13  4.31693205048096E-01
 cg2d: Sum(rhs),rhsMax =   1.63956521970210E-13  4.31147428624084E-01
 cg2d: Sum(rhs),rhsMax =   6.41127775868888E-14  4.30535586480274E-01
 cg2d: Sum(rhs),rhsMax =   4.57594032110542E-14  4.29852436739719E-01
 cg2d: Sum(rhs),rhsMax =   7.57258838968156E-14  4.29099860271932E-01
 cg2d: Sum(rhs),rhsMax =  -2.74762851359966E-14  4.28282116763048E-01
 cg2d: Sum(rhs),rhsMax =   1.82510256907520E-14  4.27405573498632E-01
 cg2d: Sum(rhs),rhsMax =   6.24396367943092E-14  4.26478790154367E-01
 cg2d: Sum(rhs),rhsMax =   8.26335527781552E-14  4.25547460854976E-01
 cg2d: Sum(rhs),rhsMax =   5.51954315586300E-14  4.24565702159160E-01
 cg2d: Sum(rhs),rhsMax =  -9.10799213826863E-14  4.23568445721608E-01
 cg2d: Sum(rhs),rhsMax =  -6.00838823139327E-14  4.22567116993107E-01
 cg2d: Sum(rhs),rhsMax =  -2.15105711021124E-16  4.21573250139133E-01
 cg2d: Sum(rhs),rhsMax =   2.73461808752984E-14  4.20583177776180E-01
 cg2d: Sum(rhs),rhsMax =  -4.30723165467661E-14  4.19605995991561E-01
 cg2d: Sum(rhs),rhsMax =   3.33075581004927E-14  4.18647952469287E-01
 cg2d: Sum(rhs),rhsMax =   8.14088380041156E-14  4.17723323699589E-01
 cg2d: Sum(rhs),rhsMax =   2.55420684602825E-14  4.16844703286211E-01
 cg2d: Sum(rhs),rhsMax =   5.78244049864729E-14  4.16019906843571E-01
 cg2d: Sum(rhs),rhsMax =  -5.65381075290361E-14  4.15265370597224E-01
 cg2d: Sum(rhs),rhsMax =   1.61707452983606E-13  4.14580663555592E-01
 cg2d: Sum(rhs),rhsMax =  -2.94304511316845E-14  4.13971337166355E-01
 cg2d: Sum(rhs),rhsMax =   1.10225197025304E-13  4.13439617158287E-01
 cg2d: Sum(rhs),rhsMax =  -3.30837787720917E-14  4.12989084430898E-01
 cg2d: Sum(rhs),rhsMax =   7.43372377542961E-14  4.12622434505458E-01
 cg2d: Sum(rhs),rhsMax =   9.91108237147209E-14  4.12340900876486E-01
 cg2d: Sum(rhs),rhsMax =  -5.76283812336875E-14  4.12126344628598E-01
 cg2d: Sum(rhs),rhsMax =   1.40765003819876E-13  4.11973968622962E-01
 cg2d: Sum(rhs),rhsMax =   1.47997065991223E-13  4.11879792466706E-01
 cg2d: Sum(rhs),rhsMax =  -5.31519273039294E-15  4.11842378975426E-01
 cg2d: Sum(rhs),rhsMax =  -4.70500374771810E-14  4.11855691213246E-01
 cg2d: Sum(rhs),rhsMax =   1.64762301024801E-13  4.11913283824156E-01
 cg2d: Sum(rhs),rhsMax =  -8.12492434443257E-14  4.12008226366270E-01
 cg2d: Sum(rhs),rhsMax =   6.90116366830473E-14  4.12149950166690E-01
 cg2d: Sum(rhs),rhsMax =  -2.65083094364016E-14  4.12307985930397E-01
 cg2d: Sum(rhs),rhsMax =   1.95498131572158E-13  4.12476483749499E-01
 cg2d: Sum(rhs),rhsMax =  -2.49886916714459E-15  4.12652289908505E-01
 cg2d: Sum(rhs),rhsMax =  -2.81536946533656E-14  4.12826777005616E-01
 cg2d: Sum(rhs),rhsMax =   6.44675285377261E-14  4.12993161575592E-01
 cg2d: Sum(rhs),rhsMax =   3.01147995429574E-14  4.13145318404822E-01
 cg2d: Sum(rhs),rhsMax =  -8.63024929298462E-15  4.13273388762295E-01
 cg2d: Sum(rhs),rhsMax =   1.42802436542411E-14  4.13369683839723E-01
 cg2d: Sum(rhs),rhsMax =   1.93092070110978E-14  4.13425340698859E-01
 cg2d: Sum(rhs),rhsMax =   8.65054555765354E-14  4.13436546919677E-01
 cg2d: Sum(rhs),rhsMax =   5.05324948552044E-15  4.13409120015927E-01
 cg2d: Sum(rhs),rhsMax =  -8.51419629244177E-14  4.13332831762274E-01
 cg2d: Sum(rhs),rhsMax =   1.16347903533764E-14  4.13199774412694E-01
 cg2d: Sum(rhs),rhsMax =   7.56946588742480E-14  4.13006342282692E-01
 cg2d: Sum(rhs),rhsMax =  -8.47707321005586E-14  4.12758672721641E-01
 cg2d: Sum(rhs),rhsMax =   1.56525833960863E-13  4.12453786111954E-01
 cg2d: Sum(rhs),rhsMax =   1.94063515257525E-14  4.12072601794712E-01
 cg2d: Sum(rhs),rhsMax =   2.24126273096203E-14  4.11617779455101E-01
 cg2d: Sum(rhs),rhsMax =  -1.80983700248660E-14  4.11087612875341E-01
 cg2d: Sum(rhs),rhsMax =   1.09997080888213E-13  4.10477140380258E-01
 cg2d: Sum(rhs),rhsMax =   9.97309873573826E-14  4.09789583599205E-01
 cg2d: Sum(rhs),rhsMax =  -5.07337227784177E-14  4.09028550851230E-01
 cg2d: Sum(rhs),rhsMax =  -1.47963238883442E-13  4.08210857285113E-01
 cg2d: Sum(rhs),rhsMax =  -7.94173754536942E-14  4.07342764314562E-01
 cg2d: Sum(rhs),rhsMax =  -8.67136223936527E-14  4.07741586966997E-01
 cg2d: Sum(rhs),rhsMax =   9.00529650849080E-14  4.07987380364133E-01
 cg2d: Sum(rhs),rhsMax =   3.72098185597025E-14  4.08093624550092E-01
 cg2d: Sum(rhs),rhsMax =   2.12156681111964E-15  4.08070262607456E-01
 cg2d: Sum(rhs),rhsMax =   2.45272552268361E-14  4.07924624062672E-01
 cg2d: Sum(rhs),rhsMax =  -5.24285476144470E-14  4.07659266346819E-01
 cg2d: Sum(rhs),rhsMax =   7.31689014932257E-14  4.07284784556788E-01
 cg2d: Sum(rhs),rhsMax =  -3.00332675395865E-14  4.06816042188669E-01
 cg2d: Sum(rhs),rhsMax =  -7.72108071922517E-14  4.06266956779675E-01
 cg2d: Sum(rhs),rhsMax =   8.49528780655362E-14  4.05652206385660E-01
 cg2d: Sum(rhs),rhsMax =   1.54858764700450E-14  4.04984897672113E-01
 cg2d: Sum(rhs),rhsMax =  -5.28049826087340E-15  4.04276392892111E-01
 cg2d: Sum(rhs),rhsMax =  -3.84640236328337E-14  4.03540788194732E-01
 cg2d: Sum(rhs),rhsMax =  -8.99107177598779E-15  4.02791322454446E-01
 cg2d: Sum(rhs),rhsMax =   9.52363188311267E-16  4.02042559689986E-01
 cg2d: Sum(rhs),rhsMax =   1.14356440983343E-13  4.01301971170369E-01
 cg2d: Sum(rhs),rhsMax =  -9.29655658010731E-14  4.00559506507841E-01
 cg2d: Sum(rhs),rhsMax =   1.59438434677028E-14  3.99827517188596E-01
 cg2d: Sum(rhs),rhsMax =  -9.00876595544275E-14  3.99119789638452E-01
 cg2d: Sum(rhs),rhsMax =  -1.04465047723323E-14  3.98447672114895E-01
 cg2d: Sum(rhs),rhsMax =   1.01082336945169E-14  3.97821036393416E-01
 cg2d: Sum(rhs),rhsMax =  -6.31404650786038E-14  3.97254028834016E-01
 cg2d: Sum(rhs),rhsMax =  -5.00259556002192E-14  3.96755482351657E-01
 cg2d: Sum(rhs),rhsMax =   3.93296506473462E-14  3.96334168871730E-01
 cg2d: Sum(rhs),rhsMax =  -3.69201197392144E-14  3.95997648453915E-01
 cg2d: Sum(rhs),rhsMax =  -7.81145981232356E-15  3.95752647031193E-01
 cg2d: Sum(rhs),rhsMax =   5.72458747072346E-14  3.95605045929845E-01
 cg2d: Sum(rhs),rhsMax =   6.03510297292331E-15  3.95549683250985E-01
 cg2d: Sum(rhs),rhsMax =   8.64482097018282E-14  3.95609547231047E-01
 cg2d: Sum(rhs),rhsMax =  -1.43374895289483E-14  3.96001676456840E-01
 cg2d: Sum(rhs),rhsMax =   5.89788634597355E-14  3.96433459950429E-01
 cg2d: Sum(rhs),rhsMax =   4.72451938682283E-14  3.96832524962078E-01
 cg2d: Sum(rhs),rhsMax =  -5.24719157013465E-14  3.97206415765586E-01
 cg2d: Sum(rhs),rhsMax =  -6.79907519174350E-14  3.97558731682520E-01
 cg2d: Sum(rhs),rhsMax =  -2.01869770899421E-14  3.98099032254402E-01
 cg2d: Sum(rhs),rhsMax =   6.31421998020798E-14  3.98815031436725E-01
 cg2d: Sum(rhs),rhsMax =   1.30891825156354E-13  3.99605040894305E-01
 cg2d: Sum(rhs),rhsMax =   2.11983208764366E-15  4.00436296839742E-01
 cg2d: Sum(rhs),rhsMax =   4.47558656802016E-16  4.01310675393095E-01
 cg2d: Sum(rhs),rhsMax =  -1.01901126425830E-13  4.02222633177976E-01
 cg2d: Sum(rhs),rhsMax =   4.97345220562551E-15  4.03163789118423E-01
 cg2d: Sum(rhs),rhsMax =   4.33680868994202E-17  4.04128528666896E-01
 cg2d: Sum(rhs),rhsMax =   3.64309277189889E-14  4.05107506958078E-01
 cg2d: Sum(rhs),rhsMax =  -7.47579081972205E-14  4.06090225340480E-01
 cg2d: Sum(rhs),rhsMax =  -1.81781673047610E-14  4.07062992376473E-01
 cg2d: Sum(rhs),rhsMax =  -5.50254286579843E-15  4.08018379853444E-01
 cg2d: Sum(rhs),rhsMax =  -5.57782986465583E-14  4.08947852720226E-01
 cg2d: Sum(rhs),rhsMax =   2.73704670039621E-14  4.09844767394761E-01
 cg2d: Sum(rhs),rhsMax =   1.35415983981702E-13  4.10701491597311E-01
 cg2d: Sum(rhs),rhsMax =  -4.01085414880598E-14  4.11511469406035E-01
 cg2d: Sum(rhs),rhsMax =  -7.77156117237610E-14  4.12268178804019E-01
 cg2d: Sum(rhs),rhsMax =  -9.97292526339066E-14  4.12964060050454E-01
 cg2d: Sum(rhs),rhsMax =  -3.06525638205102E-15  4.13590078347781E-01
 cg2d: Sum(rhs),rhsMax =  -5.69856661858381E-14  4.14138637064229E-01
 cg2d: Sum(rhs),rhsMax =   8.46718528624280E-14  4.14603481754371E-01
 cg2d: Sum(rhs),rhsMax =   1.36401306916056E-14  4.14980939371657E-01
 cg2d: Sum(rhs),rhsMax =   1.00910599321047E-13  4.15269585652419E-01
 cg2d: Sum(rhs),rhsMax =   4.25770529943748E-14  4.15470055971545E-01
 cg2d: Sum(rhs),rhsMax =  -8.98031649043673E-14  4.15585210617373E-01
 cg2d: Sum(rhs),rhsMax =   3.05155206659080E-14  4.15613980319436E-01
 cg2d: Sum(rhs),rhsMax =  -6.29288288145347E-14  4.15541515713524E-01
 cg2d: Sum(rhs),rhsMax =  -1.28614133232396E-13  4.15375793471138E-01
 cg2d: Sum(rhs),rhsMax =  -1.23184448752589E-13  4.15123304616546E-01
 cg2d: Sum(rhs),rhsMax =   4.54497550705923E-15  4.14791366682720E-01
 cg2d: Sum(rhs),rhsMax =   1.10219125493138E-13  4.15249243489667E-01
 cg2d: Sum(rhs),rhsMax =  -1.75276460012697E-14  4.16040128915113E-01
 cg2d: Sum(rhs),rhsMax =  -1.96695090770582E-13  4.16814494901672E-01
 cg2d: Sum(rhs),rhsMax =  -5.93448901131666E-14  4.17567884330319E-01
 cg2d: Sum(rhs),rhsMax =  -9.43568140288065E-14  4.18291916784596E-01
 cg2d: Sum(rhs),rhsMax =  -1.03249006566664E-13  4.18984685087452E-01
 cg2d: Sum(rhs),rhsMax =  -4.37844205336546E-15  4.19640361184945E-01
 cg2d: Sum(rhs),rhsMax =  -4.54393467297365E-14  4.20237482624122E-01
 cg2d: Sum(rhs),rhsMax =  -1.17818949041393E-13  4.20771081307954E-01
 cg2d: Sum(rhs),rhsMax =   1.85424592347161E-14  4.21242492778387E-01
 cg2d: Sum(rhs),rhsMax =   1.17834561552677E-13  4.21647708752804E-01
 cg2d: Sum(rhs),rhsMax =  -5.70724023596370E-14  4.21988105891502E-01
 cg2d: Sum(rhs),rhsMax =   6.58865323410751E-14  4.22263975237931E-01
 cg2d: Sum(rhs),rhsMax =  -6.78068712289814E-14  4.22481672306906E-01
 cg2d: Sum(rhs),rhsMax =   5.20104792567366E-14  4.22648595853038E-01
 cg2d: Sum(rhs),rhsMax =   4.74169314923500E-14  4.22791800585124E-01
 cg2d: Sum(rhs),rhsMax =   5.53376788836601E-14  4.22900644084682E-01
 cg2d: Sum(rhs),rhsMax =  -9.11631881095332E-14  4.22987706672288E-01
 cg2d: Sum(rhs),rhsMax =  -2.68569888550729E-14  4.23065229549439E-01
 cg2d: Sum(rhs),rhsMax =   8.30169266663461E-14  4.23143387180061E-01
 cg2d: Sum(rhs),rhsMax =  -4.03115041347490E-14  4.23231577172765E-01
 cg2d: Sum(rhs),rhsMax =   1.81191867065778E-14  4.23328961153448E-01
 cg2d: Sum(rhs),rhsMax =   1.73330100272651E-13  4.23436154740374E-01
 cg2d: Sum(rhs),rhsMax =   1.24190588368656E-13  4.23562717735442E-01
 cg2d: Sum(rhs),rhsMax =  -8.55912563046957E-15  4.23715428048713E-01
 cg2d: Sum(rhs),rhsMax =   4.83658252337094E-14  4.23902868556721E-01
 cg2d: Sum(rhs),rhsMax =   5.16531262206854E-14  4.24125619472684E-01
 cg2d: Sum(rhs),rhsMax =   4.07885530906427E-14  4.24384519206146E-01
 cg2d: Sum(rhs),rhsMax =   5.18023124396194E-14  4.24688566831454E-01
 cg2d: Sum(rhs),rhsMax =   5.93414206662146E-14  4.25038794745235E-01
 cg2d: Sum(rhs),rhsMax =  -1.01238462058006E-13  4.25436232456032E-01
 cg2d: Sum(rhs),rhsMax =  -4.31963492752985E-14  4.25881364383272E-01
 cg2d: Sum(rhs),rhsMax =   3.90017879103866E-14  4.26373748827142E-01
 cg2d: Sum(rhs),rhsMax =  -2.15938378289593E-14  4.26907913641694E-01
 cg2d: Sum(rhs),rhsMax =  -1.25437854547883E-14  4.27482383868802E-01
 cg2d: Sum(rhs),rhsMax =  -7.50684236994204E-14  4.28092556522258E-01
 cg2d: Sum(rhs),rhsMax =  -8.07149486137249E-14  4.28732807107038E-01
 cg2d: Sum(rhs),rhsMax =  -9.40584415909385E-14  4.29391097546148E-01
 cg2d: Sum(rhs),rhsMax =   2.72386280197878E-14  4.30053479773891E-01
 cg2d: Sum(rhs),rhsMax =  -2.50285903113934E-14  4.30712045728797E-01
 cg2d: Sum(rhs),rhsMax =   9.71653313364129E-14  4.31358180381731E-01
 cg2d: Sum(rhs),rhsMax =  -7.37101352177305E-14  4.31983492011051E-01
 cg2d: Sum(rhs),rhsMax =   5.73291414340815E-14  4.32581001741120E-01
 cg2d: Sum(rhs),rhsMax =  -1.80688797257744E-14  4.33144450313166E-01
 cg2d: Sum(rhs),rhsMax =  -1.28421578926563E-14  4.33663414559938E-01
 cg2d: Sum(rhs),rhsMax =  -6.63705201908726E-15  4.34131506365258E-01
 cg2d: Sum(rhs),rhsMax =  -4.36612551668603E-14  4.34543133311263E-01
 cg2d: Sum(rhs),rhsMax =  -4.59406818142938E-14  4.34893002347823E-01
 cg2d: Sum(rhs),rhsMax =   4.92141050134620E-15  4.35176812528309E-01
 cg2d: Sum(rhs),rhsMax =  -6.06598105079570E-14  4.35392756773693E-01
 cg2d: Sum(rhs),rhsMax =  -8.70831184940357E-15  4.35539134797941E-01
 cg2d: Sum(rhs),rhsMax =   1.67088565206086E-14  4.35615668400317E-01
 cg2d: Sum(rhs),rhsMax =   1.52778831252753E-13  4.35623677884764E-01
 cg2d: Sum(rhs),rhsMax =  -6.72031874593415E-15  4.35569072966181E-01
 cg2d: Sum(rhs),rhsMax =   2.26797747249208E-14  4.35451790508011E-01
 cg2d: Sum(rhs),rhsMax =   8.32806046346946E-14  4.35275474600139E-01
 cg2d: Sum(rhs),rhsMax =  -5.50948175970234E-15  4.35045862762837E-01
 cg2d: Sum(rhs),rhsMax =  -4.23099055790743E-14  4.34769326275580E-01
 cg2d: Sum(rhs),rhsMax =  -1.48814988110146E-13  4.34451913549534E-01
 cg2d: Sum(rhs),rhsMax =  -4.42770820008320E-14  4.34100283619940E-01
 cg2d: Sum(rhs),rhsMax =  -2.43000064514831E-14  4.33721150634387E-01
 cg2d: Sum(rhs),rhsMax =  -4.71185590544820E-14  4.33321906014573E-01
 cg2d: Sum(rhs),rhsMax =   9.42163014272523E-14  4.32909803926143E-01
 cg2d: Sum(rhs),rhsMax =  -1.75970349403087E-14  4.32489472745173E-01
 cg2d: Sum(rhs),rhsMax =   8.06646416329215E-14  4.32068514425043E-01
 cg2d: Sum(rhs),rhsMax =  -2.89178403445334E-14  4.31651446378957E-01
 cg2d: Sum(rhs),rhsMax =  -8.30169266663461E-14  4.31244059297239E-01
 cg2d: Sum(rhs),rhsMax =  -4.34027813689397E-15  4.30852357621015E-01
 cg2d: Sum(rhs),rhsMax =   1.03961977915290E-14  4.30482453333826E-01
 cg2d: Sum(rhs),rhsMax =   5.38978583985994E-14  4.30139980330033E-01
 cg2d: Sum(rhs),rhsMax =   2.18736487256344E-13  4.29832370838232E-01
 cg2d: Sum(rhs),rhsMax =  -2.72004641033163E-15  4.29559138444659E-01
 cg2d: Sum(rhs),rhsMax =   2.06536177049799E-14  4.29325315485463E-01
 cg2d: Sum(rhs),rhsMax =  -1.83391496433316E-13  4.29132708275189E-01
 cg2d: Sum(rhs),rhsMax =  -1.53592416562987E-14  4.28980965642431E-01
 cg2d: Sum(rhs),rhsMax =  -2.38056102608297E-14  4.28871631299840E-01
 cg2d: Sum(rhs),rhsMax =  -8.92428492216268E-14  4.28805736818962E-01
 cg2d: Sum(rhs),rhsMax =   7.87252207867795E-14  4.28783877343707E-01
 cg2d: Sum(rhs),rhsMax =  -6.83481049534862E-15  4.28814894919642E-01
 cg2d: Sum(rhs),rhsMax =   7.32660460078804E-14  4.28885650675481E-01
 cg2d: Sum(rhs),rhsMax =  -7.01869118380216E-14  4.28993451845044E-01
 cg2d: Sum(rhs),rhsMax =   3.19085036171174E-14  4.29133569667605E-01
 cg2d: Sum(rhs),rhsMax =   9.30505672513959E-14  4.29298291682595E-01
 cg2d: Sum(rhs),rhsMax =  -1.51077067522820E-14  4.29488695186765E-01
 cg2d: Sum(rhs),rhsMax =   2.80452744361170E-14  4.29697870794984E-01
 cg2d: Sum(rhs),rhsMax =   4.59476207081977E-14  4.29919436383714E-01
 cg2d: Sum(rhs),rhsMax =  -7.26987914312360E-14  4.30147614766366E-01
 cg2d: Sum(rhs),rhsMax =  -8.93469326301854E-14  4.30375025521835E-01
 cg2d: Sum(rhs),rhsMax =   5.48346090756269E-15  4.30587603690652E-01
 cg2d: Sum(rhs),rhsMax =  -1.00499469857240E-13  4.30782600131999E-01
 cg2d: Sum(rhs),rhsMax =   2.17412893244173E-14  4.30958157377305E-01
 cg2d: Sum(rhs),rhsMax =   1.42254263924002E-13  4.31109312627221E-01
 cg2d: Sum(rhs),rhsMax =   7.04315078481343E-14  4.31237329470890E-01
 cg2d: Sum(rhs),rhsMax =  -6.27640300843169E-14  4.31342014614641E-01
 cg2d: Sum(rhs),rhsMax =  -1.06383651887754E-13  4.31422766276440E-01
 cg2d: Sum(rhs),rhsMax =  -8.63614735280294E-14  4.31479167803358E-01
 cg2d: Sum(rhs),rhsMax =  -5.14553677444241E-14  4.31511467591005E-01
 cg2d: Sum(rhs),rhsMax =  -1.10952913523477E-14  4.31517372433875E-01
 cg2d: Sum(rhs),rhsMax =   5.95669347180916E-14  4.31490516350335E-01
 cg2d: Sum(rhs),rhsMax =  -1.49324996812084E-14  4.31429214688345E-01
 cg2d: Sum(rhs),rhsMax =  -4.93702301262999E-14  4.31333865025232E-01
 cg2d: Sum(rhs),rhsMax =   6.68423649763383E-14  4.31204906999677E-01
 cg2d: Sum(rhs),rhsMax =  -1.36557432028894E-14  4.31038930349765E-01
 cg2d: Sum(rhs),rhsMax =  -2.69229083471600E-14  4.30834088696078E-01
 cg2d: Sum(rhs),rhsMax =   3.65922570022548E-14  4.30590233632946E-01
 cg2d: Sum(rhs),rhsMax =  -8.02309607639273E-14  4.30307622431778E-01
 cg2d: Sum(rhs),rhsMax =  -8.83668138662586E-14  4.29993864577268E-01
 cg2d: Sum(rhs),rhsMax =  -6.28073981712163E-14  4.29656983537750E-01
 cg2d: Sum(rhs),rhsMax =  -8.35789770725626E-14  4.29300337155621E-01
 cg2d: Sum(rhs),rhsMax =  -4.29864477347053E-15  4.28927992510276E-01
 cg2d: Sum(rhs),rhsMax =  -7.91970655722452E-14  4.28545931897071E-01
 cg2d: Sum(rhs),rhsMax =   1.29389554626158E-13  4.28158964176138E-01
 cg2d: Sum(rhs),rhsMax =  -6.58292864663679E-14  4.27772142530735E-01
 cg2d: Sum(rhs),rhsMax =   7.31428806410861E-14  4.27389334455436E-01
 cg2d: Sum(rhs),rhsMax =   2.53616572187809E-15  4.27013873165437E-01
 cg2d: Sum(rhs),rhsMax =  -1.64208924235965E-14  4.26650493012714E-01
 cg2d: Sum(rhs),rhsMax =   1.16958526197308E-13  4.26296986037395E-01
 cg2d: Sum(rhs),rhsMax =  -9.97188442930508E-14  4.25954108366502E-01
 cg2d: Sum(rhs),rhsMax =  -3.18668702536939E-14  4.25624327953311E-01
 cg2d: Sum(rhs),rhsMax =   4.04225264372116E-14  4.25309132130647E-01
 cg2d: Sum(rhs),rhsMax =  -1.86899107301741E-14  4.25002656800259E-01
 cg2d: Sum(rhs),rhsMax =   6.47745745929740E-15  4.24698349641068E-01
 cg2d: Sum(rhs),rhsMax =   2.84702816877314E-14  4.24409793414148E-01
 cg2d: Sum(rhs),rhsMax =  -4.60742555219440E-14  4.24120523211172E-01
 cg2d: Sum(rhs),rhsMax =   3.67483821150927E-14  4.23836088838641E-01
 cg2d: Sum(rhs),rhsMax =  -6.33625096835289E-14  4.23559822892030E-01
 cg2d: Sum(rhs),rhsMax =  -4.00478261664006E-14  4.23292098378918E-01
 cg2d: Sum(rhs),rhsMax =   2.20379270388094E-14  4.23031670503233E-01
 cg2d: Sum(rhs),rhsMax =  -9.47818212804208E-14  4.22756668501603E-01
 cg2d: Sum(rhs),rhsMax =  -3.03333747009304E-14  4.22462369262047E-01
 cg2d: Sum(rhs),rhsMax =   7.32539029435486E-14  4.22146359673973E-01
 cg2d: Sum(rhs),rhsMax =  -1.27255844750707E-13  4.21806429558634E-01
 cg2d: Sum(rhs),rhsMax =  -3.81743248123456E-14  4.21438986457305E-01
 cg2d: Sum(rhs),rhsMax =  -1.77288739244830E-14  4.21036526615105E-01
 cg2d: Sum(rhs),rhsMax =   1.31387956070483E-14  4.20596994277287E-01
 cg2d: Sum(rhs),rhsMax =   1.27741567323980E-13  4.20120312778978E-01
 cg2d: Sum(rhs),rhsMax =  -1.10456782609347E-13  4.19606106870179E-01
 cg2d: Sum(rhs),rhsMax =   6.39766017940246E-15  4.19058311012502E-01
 cg2d: Sum(rhs),rhsMax =  -1.63598301572421E-13  4.18477042771864E-01
 cg2d: Sum(rhs),rhsMax =  -4.03219124756049E-14  4.17850766418485E-01
 cg2d: Sum(rhs),rhsMax =  -4.27435864480685E-14  4.17191624800215E-01
 cg2d: Sum(rhs),rhsMax =  -1.25306015563709E-13  4.16499124077008E-01
 cg2d: Sum(rhs),rhsMax =  -1.60076812916188E-13  4.15786408153643E-01
 cg2d: Sum(rhs),rhsMax =   3.06699110552699E-14  4.15038481032539E-01
 cg2d: Sum(rhs),rhsMax =  -7.30665528081431E-14  4.14254750224089E-01
 cg2d: Sum(rhs),rhsMax =  -2.05738204250849E-14  4.13432405539700E-01
 cg2d: Sum(rhs),rhsMax =   2.14758766325929E-14  4.12570676930507E-01
 cg2d: Sum(rhs),rhsMax =  -3.26474958178835E-15  4.11671076784991E-01
 cg2d: Sum(rhs),rhsMax =  -4.45997405673637E-14  4.10734347994192E-01
 cg2d: Sum(rhs),rhsMax =  -1.30499777650783E-13  4.09757665621319E-01
 cg2d: Sum(rhs),rhsMax =  -5.91852955533767E-14  4.08799688108841E-01
 cg2d: Sum(rhs),rhsMax =   5.57574819648465E-14  4.07807673011755E-01
 cg2d: Sum(rhs),rhsMax =   1.26669508215826E-14  4.06782764146946E-01
 cg2d: Sum(rhs),rhsMax =  -1.46150452851046E-13  4.05729067387758E-01
 cg2d: Sum(rhs),rhsMax =  -6.33382235548652E-14  4.04650507723327E-01
 cg2d: Sum(rhs),rhsMax =   4.19594914369270E-14  4.03551623597425E-01
 cg2d: Sum(rhs),rhsMax =  -1.35527006284164E-13  4.02902479052452E-01
 cg2d: Sum(rhs),rhsMax =   3.29423988087996E-14  4.03085337379641E-01
 cg2d: Sum(rhs),rhsMax =  -6.74599265337861E-14  4.03244517193237E-01
 cg2d: Sum(rhs),rhsMax =   2.04107564183431E-14  4.03381603712163E-01
 cg2d: Sum(rhs),rhsMax =  -1.00926211832331E-13  4.03497458133957E-01
 cg2d: Sum(rhs),rhsMax =  -1.11435166649798E-13  4.03592854735845E-01
 cg2d: Sum(rhs),rhsMax =  -1.91107546454461E-13  4.03665761540013E-01
 cg2d: Sum(rhs),rhsMax =   1.26596649829835E-13  4.03715524727909E-01
 cg2d: Sum(rhs),rhsMax =   2.61179966543068E-14  4.03739464540633E-01
 cg2d: Sum(rhs),rhsMax =   1.73749903353837E-14  4.03738063640057E-01
 cg2d: Sum(rhs),rhsMax =   2.81268064394880E-14  4.03698360931897E-01
 cg2d: Sum(rhs),rhsMax =   1.03146657881581E-14  4.03618614090265E-01
 cg2d: Sum(rhs),rhsMax =   1.28924648734596E-13  4.03499746437269E-01
 cg2d: Sum(rhs),rhsMax =   1.13034581694649E-14  4.03361046585908E-01
 cg2d: Sum(rhs),rhsMax =  -7.19563297835180E-15  4.03178514634568E-01
 cg2d: Sum(rhs),rhsMax =   2.67355582117546E-14  4.02956127794108E-01
 cg2d: Sum(rhs),rhsMax =   2.14443046653301E-13  4.02698269513546E-01
 cg2d: Sum(rhs),rhsMax =  -2.62082022750576E-14  4.02404331747138E-01
 cg2d: Sum(rhs),rhsMax =  -1.12236608895699E-13  4.02075060355461E-01
 cg2d: Sum(rhs),rhsMax =  -1.54227325355194E-13  4.01711736642780E-01
 cg2d: Sum(rhs),rhsMax =  -5.93240734314548E-14  4.01316144289492E-01
 cg2d: Sum(rhs),rhsMax =   3.05658276467113E-14  4.00888862375960E-01
 cg2d: Sum(rhs),rhsMax =  -1.06727127135997E-13  4.00430995854768E-01
 cg2d: Sum(rhs),rhsMax =   9.78661596207075E-14  3.99943251797490E-01
 cg2d: Sum(rhs),rhsMax =  -9.58608192824784E-15  3.99426139233018E-01
 cg2d: Sum(rhs),rhsMax =  -8.53761505936745E-14  3.98880434815820E-01
 cg2d: Sum(rhs),rhsMax =  -1.08489606187590E-14  3.98307598460239E-01
 cg2d: Sum(rhs),rhsMax =   8.30169266663461E-14  3.97709774474874E-01
 cg2d: Sum(rhs),rhsMax =  -2.10595429983584E-15  3.97091784903843E-01
 cg2d: Sum(rhs),rhsMax =  -1.32137356612105E-13  3.96457493260868E-01
 cg2d: Sum(rhs),rhsMax =  -3.31575045198207E-14  3.95807277370964E-01
 cg2d: Sum(rhs),rhsMax =  -8.53483950180589E-14  3.95141301332016E-01
 cg2d: Sum(rhs),rhsMax =   1.39235845075802E-13  3.94460422558986E-01
 cg2d: Sum(rhs),rhsMax =   7.28826721196896E-14  3.93767747158125E-01
 cg2d: Sum(rhs),rhsMax =  -3.31124017094453E-14  3.93067406565439E-01
 cg2d: Sum(rhs),rhsMax =   1.16660153759440E-13  3.92364195626221E-01
 cg2d: Sum(rhs),rhsMax =   1.31145094783847E-14  3.91665030389649E-01
 cg2d: Sum(rhs),rhsMax =  -9.39873179284234E-15  3.90976434924176E-01
 cg2d: Sum(rhs),rhsMax =  -1.24032728532342E-13  3.90306425384268E-01
 cg2d: Sum(rhs),rhsMax =  -1.60430696505287E-13  3.89663533351454E-01
 cg2d: Sum(rhs),rhsMax =   5.53446177775641E-14  3.89052044802203E-01
 cg2d: Sum(rhs),rhsMax =   2.01921812603700E-15  3.88480654863926E-01
 cg2d: Sum(rhs),rhsMax =   2.50077736296817E-14  3.87958721945096E-01
 cg2d: Sum(rhs),rhsMax =   5.55458457007774E-15  3.87493819468608E-01
 cg2d: Sum(rhs),rhsMax =  -3.58393870136808E-15  3.87098952001697E-01
 cg2d: Sum(rhs),rhsMax =   2.77868006381965E-14  3.86771017003397E-01
 cg2d: Sum(rhs),rhsMax =  -4.85653184334467E-14  3.86510953777333E-01
 cg2d: Sum(rhs),rhsMax =  -3.22866733348803E-14  3.86314276554070E-01
 cg2d: Sum(rhs),rhsMax =  -1.58519031234761E-14  3.86185816848821E-01
 cg2d: Sum(rhs),rhsMax =  -3.00870439673417E-14  3.86127976413908E-01
 cg2d: Sum(rhs),rhsMax =   3.46285500274490E-14  3.86140916433867E-01
 cg2d: Sum(rhs),rhsMax =   1.32324706747511E-14  3.86225355648567E-01
 cg2d: Sum(rhs),rhsMax =   6.46635522905115E-14  3.86392422610872E-01
 cg2d: Sum(rhs),rhsMax =   9.91567938868343E-15  3.86635788032284E-01
 cg2d: Sum(rhs),rhsMax =  -1.18273446592099E-14  3.86948510151256E-01
 cg2d: Sum(rhs),rhsMax =   1.08701242451659E-13  3.87333661935721E-01
 cg2d: Sum(rhs),rhsMax =  -1.69655955950532E-14  3.87783385299130E-01
 cg2d: Sum(rhs),rhsMax =  -8.80372164058230E-14  3.88289346400113E-01
 cg2d: Sum(rhs),rhsMax =   8.06923972085372E-14  3.88844106410224E-01
 cg2d: Sum(rhs),rhsMax =  -6.38690489385141E-14  3.89438128418729E-01
 cg2d: Sum(rhs),rhsMax =  -1.02189090522842E-13  3.90068923243599E-01
 cg2d: Sum(rhs),rhsMax =  -1.02789304845530E-13  3.90731577037990E-01
 cg2d: Sum(rhs),rhsMax =   8.06993361024411E-14  3.91410593152492E-01
 cg2d: Sum(rhs),rhsMax =  -4.77638761875454E-14  3.92109337411487E-01
 cg2d: Sum(rhs),rhsMax =  -6.80705491973299E-15  3.92821843015042E-01
 cg2d: Sum(rhs),rhsMax =  -1.70332498106163E-13  3.93539686890171E-01
 cg2d: Sum(rhs),rhsMax =  -2.32106001085697E-15  3.94259108890042E-01
 cg2d: Sum(rhs),rhsMax =  -1.20979615214623E-13  3.94972914781797E-01
 cg2d: Sum(rhs),rhsMax =   4.19282664143594E-14  3.95672930581758E-01
 cg2d: Sum(rhs),rhsMax =   2.68014777038417E-14  3.96357971721059E-01
 cg2d: Sum(rhs),rhsMax =  -1.01845615274598E-13  3.97024930064569E-01
 cg2d: Sum(rhs),rhsMax =  -4.48877046643759E-14  3.97666471407359E-01
 cg2d: Sum(rhs),rhsMax =  -5.05151476204446E-14  3.98279379265995E-01
 cg2d: Sum(rhs),rhsMax =   9.16593190236625E-14  3.98861034146633E-01
 cg2d: Sum(rhs),rhsMax =  -9.99894611553032E-15  3.99407367251323E-01
 cg2d: Sum(rhs),rhsMax =  -8.13793477050240E-14  3.99917454402122E-01
 cg2d: Sum(rhs),rhsMax =   1.59074142747073E-14  4.00382380968917E-01
 cg2d: Sum(rhs),rhsMax =  -1.13520304267922E-13  4.00785882073922E-01
 cg2d: Sum(rhs),rhsMax =  -1.58800056437869E-13  4.01126760215903E-01
 cg2d: Sum(rhs),rhsMax =  -1.15438908432353E-13  4.01406244797319E-01
 cg2d: Sum(rhs),rhsMax =   4.65599780952175E-15  4.01624673966522E-01
 cg2d: Sum(rhs),rhsMax =  -4.73475425533110E-14  4.01783730307057E-01
 cg2d: Sum(rhs),rhsMax =  -1.43184075707126E-14  4.01882235317436E-01
 cg2d: Sum(rhs),rhsMax =  -4.13592771142390E-14  4.01916969889946E-01
 cg2d: Sum(rhs),rhsMax =  -9.91776105685460E-14  4.01890929964723E-01
 cg2d: Sum(rhs),rhsMax =  -1.87280746466456E-14  4.01809256548196E-01
 cg2d: Sum(rhs),rhsMax =   4.00027233560252E-15  4.01674827041329E-01
 cg2d: Sum(rhs),rhsMax =   1.99840144432528E-15  4.01496210510960E-01
 cg2d: Sum(rhs),rhsMax =  -6.44866104959618E-14  4.01275566873928E-01
 cg2d: Sum(rhs),rhsMax =  -5.34988719991247E-15  4.01017501896591E-01
 cg2d: Sum(rhs),rhsMax =   8.60700399840653E-14  4.00729952247445E-01
 cg2d: Sum(rhs),rhsMax =  -3.60232677021344E-14  4.00417123951140E-01
 cg2d: Sum(rhs),rhsMax =   1.37216626949765E-14  4.00084411097469E-01
 cg2d: Sum(rhs),rhsMax =  -9.79598346884103E-14  3.99739302424937E-01
 cg2d: Sum(rhs),rhsMax =   4.84126627675607E-14  3.99385043733106E-01
 cg2d: Sum(rhs),rhsMax =  -1.07421016526388E-13  3.99022604802902E-01
 cg2d: Sum(rhs),rhsMax =  -9.08301212021456E-14  3.98659766861634E-01
 cg2d: Sum(rhs),rhsMax =  -2.19338436302507E-14  3.98301432495039E-01
 cg2d: Sum(rhs),rhsMax =   3.80459552751233E-14  3.97946331083816E-01
 cg2d: Sum(rhs),rhsMax =  -1.21881671422130E-14  3.97587474711270E-01
 cg2d: Sum(rhs),rhsMax =  -1.62543589699027E-14  3.97224988718619E-01
 cg2d: Sum(rhs),rhsMax =  -8.83668138662586E-14  3.96860421909687E-01
 cg2d: Sum(rhs),rhsMax =  -5.36029554076833E-14  3.96494808713472E-01
 cg2d: Sum(rhs),rhsMax =  -9.01119456830912E-14  3.96129043942091E-01
 cg2d: Sum(rhs),rhsMax =  -1.22131471602671E-13  3.95763831389775E-01
 cg2d: Sum(rhs),rhsMax =  -1.42511002998447E-13  3.95400106837772E-01
 cg2d: Sum(rhs),rhsMax =   1.55882251551276E-14  3.95039121365728E-01
 cg2d: Sum(rhs),rhsMax =  -8.37108160567368E-14  3.94678890517688E-01
 cg2d: Sum(rhs),rhsMax =  -4.80171458150380E-14  3.94321718389387E-01
 cg2d: Sum(rhs),rhsMax =   2.41646980203569E-14  3.93958558748503E-01
 cg2d: Sum(rhs),rhsMax =  -1.14422360475430E-14  3.93587416464523E-01
 cg2d: Sum(rhs),rhsMax =   1.27297478114130E-13  3.93210566794976E-01
 cg2d: Sum(rhs),rhsMax =  -7.15365267023316E-14  3.92831387403972E-01
 cg2d: Sum(rhs),rhsMax =  -2.94278490464706E-14  3.92452485535565E-01
 cg2d: Sum(rhs),rhsMax =   2.49592013723543E-14  3.92076477352672E-01
 cg2d: Sum(rhs),rhsMax =  -4.59701721133854E-14  3.91711915227528E-01
 cg2d: Sum(rhs),rhsMax =  -9.57948997903912E-14  3.91353488741400E-01
 cg2d: Sum(rhs),rhsMax =   2.17326157070374E-14  3.91007683844955E-01
 cg2d: Sum(rhs),rhsMax =  -8.19969092624717E-14  3.90677951150379E-01
 cg2d: Sum(rhs),rhsMax =   4.89712437268253E-14  3.90366642936089E-01
 cg2d: Sum(rhs),rhsMax =  -2.77382283808691E-14  3.90074432049779E-01
 cg2d: Sum(rhs),rhsMax =  -8.98378593738869E-14  3.89804633399791E-01
 cg2d: Sum(rhs),rhsMax =  -4.30523672267924E-14  3.89557062076772E-01
 cg2d: Sum(rhs),rhsMax =  -2.97158131434827E-14  3.89332307059399E-01
 cg2d: Sum(rhs),rhsMax =   1.04003611278713E-13  3.89131252343438E-01
 cg2d: Sum(rhs),rhsMax =  -1.52499540773121E-13  3.88951439255677E-01
 cg2d: Sum(rhs),rhsMax =  -6.67001176513082E-14  3.88791418425112E-01
 cg2d: Sum(rhs),rhsMax =   6.80497325156182E-14  3.88647181313219E-01
 cg2d: Sum(rhs),rhsMax =  -2.09908479487098E-13  3.88517130174388E-01
 cg2d: Sum(rhs),rhsMax =   1.34534744455905E-13  3.88399519127012E-01
 cg2d: Sum(rhs),rhsMax =  -3.52114171153772E-14  3.88278006279381E-01
 cg2d: Sum(rhs),rhsMax =  -3.47742667994311E-14  3.88167991974655E-01
 cg2d: Sum(rhs),rhsMax =  -9.90769966069394E-14  3.88067913936587E-01
 cg2d: Sum(rhs),rhsMax =  -1.41067713066434E-14  3.88330391860317E-01
 cg2d: Sum(rhs),rhsMax =  -8.66494376250415E-14  3.88665900229473E-01
 cg2d: Sum(rhs),rhsMax =   6.08957329006898E-14  3.89012345850911E-01
 cg2d: Sum(rhs),rhsMax =   7.72507058321992E-14  3.89367171840097E-01
 cg2d: Sum(rhs),rhsMax =  -6.50104969857068E-14  3.89728106889848E-01
 cg2d: Sum(rhs),rhsMax =   1.37889699658444E-13  3.90094403027357E-01
 cg2d: Sum(rhs),rhsMax =  -7.36008476387440E-14  3.90461200155190E-01
 cg2d: Sum(rhs),rhsMax =  -1.03955039021386E-13  3.90828612160611E-01
 cg2d: Sum(rhs),rhsMax =   3.63598040564739E-15  3.91195329090863E-01
 cg2d: Sum(rhs),rhsMax =  -1.07542447169706E-13  3.91560083846980E-01
 cg2d: Sum(rhs),rhsMax =   1.01307850997046E-15  3.91921802493140E-01
 cg2d: Sum(rhs),rhsMax =  -1.06244874009676E-13  3.92280092974960E-01
 cg2d: Sum(rhs),rhsMax =  -5.30096799788993E-14  3.92635752430057E-01
 cg2d: Sum(rhs),rhsMax =   1.38569711261027E-14  3.92988325667125E-01
 cg2d: Sum(rhs),rhsMax =   3.69877739547775E-14  3.93336496834126E-01
 cg2d: Sum(rhs),rhsMax =  -9.58400026007666E-14  3.93680358137698E-01
 cg2d: Sum(rhs),rhsMax =   3.27168847569226E-14  3.94020597988454E-01
 cg2d: Sum(rhs),rhsMax =  -4.70110061989715E-14  3.94359913775926E-01
 cg2d: Sum(rhs),rhsMax =  -3.97563926224365E-14  3.94697702844902E-01
 cg2d: Sum(rhs),rhsMax =  -1.47763745683704E-14  3.95034565094278E-01
 cg2d: Sum(rhs),rhsMax =   6.09373662641133E-14  3.95372183569189E-01
 cg2d: Sum(rhs),rhsMax =   6.93577140165047E-14  3.95711281726281E-01
 cg2d: Sum(rhs),rhsMax =   1.43288159115684E-14  3.96053301563514E-01
 cg2d: Sum(rhs),rhsMax =  -3.31921989893402E-14  3.96400093616904E-01
 cg2d: Sum(rhs),rhsMax =  -1.31089583632615E-13  3.96753945348420E-01
 cg2d: Sum(rhs),rhsMax =  -1.29653232594507E-14  3.97115365915493E-01
 cg2d: Sum(rhs),rhsMax =  -6.60305143895812E-14  3.97485727770992E-01
 cg2d: Sum(rhs),rhsMax =   2.82690537645180E-14  3.97867907787352E-01
 cg2d: Sum(rhs),rhsMax =   1.14536852224845E-13  3.98264246002738E-01
 cg2d: Sum(rhs),rhsMax =   5.41997002834194E-14  3.98674599037488E-01
 cg2d: Sum(rhs),rhsMax =  -1.22239024458182E-13  3.99099605770210E-01
 cg2d: Sum(rhs),rhsMax =   6.49862108570431E-14  3.99540647228132E-01
 cg2d: Sum(rhs),rhsMax =  -6.01532712529718E-14  3.99996502972380E-01
 cg2d: Sum(rhs),rhsMax =  -6.78346268045971E-14  4.00468014903650E-01
 cg2d: Sum(rhs),rhsMax =  -6.80115685991467E-14  4.00954784923510E-01
 cg2d: Sum(rhs),rhsMax =  -1.68094704822153E-14  4.01455623384423E-01
 cg2d: Sum(rhs),rhsMax =  -1.23755172776185E-14  4.01968035400229E-01
 cg2d: Sum(rhs),rhsMax =  -2.68361721733612E-14  4.02490336072611E-01
 cg2d: Sum(rhs),rhsMax =   7.09501901674514E-14  4.03018382267150E-01
 cg2d: Sum(rhs),rhsMax =   1.49668472060327E-13  4.03547010599973E-01
 cg2d: Sum(rhs),rhsMax =  -4.29135893487143E-14  4.04071924573485E-01
 cg2d: Sum(rhs),rhsMax =  -1.07421016526388E-13  4.04593219457690E-01
 cg2d: Sum(rhs),rhsMax =  -6.63705201908726E-15  4.05106059518418E-01
 cg2d: Sum(rhs),rhsMax =   4.82565376547228E-14  4.05602482855358E-01
 cg2d: Sum(rhs),rhsMax =  -1.38781347525097E-13  4.06078864111005E-01
 cg2d: Sum(rhs),rhsMax =  -1.64229740917676E-13  4.06533270426051E-01
 cg2d: Sum(rhs),rhsMax =  -8.21842593978772E-14  4.06961176143523E-01
 cg2d: Sum(rhs),rhsMax =  -4.26950141907412E-14  4.07358806644782E-01
 cg2d: Sum(rhs),rhsMax =   1.21604115665974E-14  4.07720604464734E-01
 cg2d: Sum(rhs),rhsMax =  -3.45279360658424E-14  4.08042711487262E-01
 cg2d: Sum(rhs),rhsMax =  -9.61383750386346E-14  4.08321039564932E-01
 cg2d: Sum(rhs),rhsMax =   4.76424455442270E-14  4.08553018387425E-01
 cg2d: Sum(rhs),rhsMax =  -5.81583392555984E-14  4.08735745317334E-01
 cg2d: Sum(rhs),rhsMax =  -3.27377014386343E-14  4.08866480255032E-01
 cg2d: Sum(rhs),rhsMax =  -8.52581893973081E-14  4.08944226640451E-01
 cg2d: Sum(rhs),rhsMax =  -4.21329637845247E-14  4.08965487958207E-01
 cg2d: Sum(rhs),rhsMax =  -4.18901024978879E-14  4.08930701183834E-01
 cg2d: Sum(rhs),rhsMax =  -8.06264777164500E-14  4.08841343572766E-01
 cg2d: Sum(rhs),rhsMax =  -1.07511222147139E-13  4.08694871911974E-01
 cg2d: Sum(rhs),rhsMax =   8.80719108753425E-14  4.08492771946667E-01
 cg2d: Sum(rhs),rhsMax =  -1.36158445629420E-13  4.08236785756016E-01
 cg2d: Sum(rhs),rhsMax =  -1.35481903473789E-13  4.07929249018804E-01
 cg2d: Sum(rhs),rhsMax =   1.43936945695700E-13  4.07572220284241E-01
 cg2d: Sum(rhs),rhsMax =  -8.04252497932367E-14  4.07170578986237E-01
 cg2d: Sum(rhs),rhsMax =   3.36952687973735E-14  4.06727339249427E-01
 cg2d: Sum(rhs),rhsMax =   7.39408534400354E-14  4.06247227388144E-01
 cg2d: Sum(rhs),rhsMax =  -1.63133395680859E-13  4.05787911003732E-01
 cg2d: Sum(rhs),rhsMax =  -6.94964918945828E-14  4.05299934588741E-01
 cg2d: Sum(rhs),rhsMax =  -6.26998453157057E-14  4.04787592451695E-01
 cg2d: Sum(rhs),rhsMax =  -4.57724136371240E-14  4.04255871159482E-01
 cg2d: Sum(rhs),rhsMax =   7.12589709461753E-14  4.03708946879015E-01
 cg2d: Sum(rhs),rhsMax =  -3.54299922733503E-14  4.03154006948518E-01
 cg2d: Sum(rhs),rhsMax =   8.96678564732412E-14  4.02595970037323E-01
 cg2d: Sum(rhs),rhsMax =  -5.19723153402651E-14  4.02038586825259E-01
 cg2d: Sum(rhs),rhsMax =  -2.23016050071578E-14  4.01486090641865E-01
 cg2d: Sum(rhs),rhsMax =   2.80851730760645E-14  4.00942157961106E-01
 cg2d: Sum(rhs),rhsMax =  -1.05620373558324E-13  4.00410028903296E-01
 cg2d: Sum(rhs),rhsMax =  -1.10661479979512E-13  3.99895547305532E-01
 cg2d: Sum(rhs),rhsMax =  -3.79002385031413E-14  3.99398890732253E-01
 cg2d: Sum(rhs),rhsMax =   3.85282084014449E-14  3.98923767941360E-01
 cg2d: Sum(rhs),rhsMax =   1.83984771862100E-14  3.98474087397615E-01
 cg2d: Sum(rhs),rhsMax =  -8.72461825007775E-14  3.98049860971750E-01
 cg2d: Sum(rhs),rhsMax =  -8.21877288448292E-14  3.97650959515982E-01
 cg2d: Sum(rhs),rhsMax =  -6.67521593555875E-14  3.97280140303209E-01
 cg2d: Sum(rhs),rhsMax =  -8.91162144078805E-14  3.96937009725697E-01
 cg2d: Sum(rhs),rhsMax =  -3.24670845763819E-14  3.96621651969396E-01
 cg2d: Sum(rhs),rhsMax =  -1.08073272553355E-14  3.96333648752466E-01
 cg2d: Sum(rhs),rhsMax =  -2.67841304690819E-14  3.96072051962465E-01
 cg2d: Sum(rhs),rhsMax =  -7.05512037679767E-14  3.95836352684762E-01
 cg2d: Sum(rhs),rhsMax =  -4.94639051940027E-14  3.95623937584582E-01
 cg2d: Sum(rhs),rhsMax =   3.65402152979755E-14  3.95434104116772E-01
 cg2d: Sum(rhs),rhsMax =   5.78703751585863E-15  3.95267361462971E-01
 cg2d: Sum(rhs),rhsMax =   2.14446516100253E-14  3.95119947486016E-01
 cg2d: Sum(rhs),rhsMax =  -9.37791511113062E-15  3.94990037060955E-01
 cg2d: Sum(rhs),rhsMax =   8.27359014632378E-14  3.94876537357578E-01
 cg2d: Sum(rhs),rhsMax =  -1.50365830897670E-14  3.94775822270668E-01
 cg2d: Sum(rhs),rhsMax =  -1.07153869111087E-13  3.94684947265454E-01
 cg2d: Sum(rhs),rhsMax =  -2.00638117231478E-14  3.94605404355760E-01
 cg2d: Sum(rhs),rhsMax =   6.46670217374634E-14  3.94537564836344E-01
 cg2d: Sum(rhs),rhsMax =  -3.60406149368941E-14  3.94481437587404E-01
 cg2d: Sum(rhs),rhsMax =  -1.62387464586189E-13  3.94437332387723E-01
 cg2d: Sum(rhs),rhsMax =  -1.28116267594791E-13  3.94405334716695E-01
 cg2d: Sum(rhs),rhsMax =  -8.90398865749376E-14  3.94385895128240E-01
 cg2d: Sum(rhs),rhsMax =  -6.81746326058885E-15  3.94379532544514E-01
 cg2d: Sum(rhs),rhsMax =   3.95170007827517E-15  3.94387937967878E-01
 cg2d: Sum(rhs),rhsMax =  -8.29197821516914E-16  3.94411467414218E-01
 cg2d: Sum(rhs),rhsMax =   1.66151814529059E-14  3.94450450316368E-01
 cg2d: Sum(rhs),rhsMax =   1.35377820065230E-14  3.94505503310463E-01
 cg2d: Sum(rhs),rhsMax =  -3.73867603542521E-14  3.95094587574890E-01
 cg2d: Sum(rhs),rhsMax =   3.97251675998689E-15  3.95883909194263E-01
 cg2d: Sum(rhs),rhsMax =   1.29778132684777E-13  3.96683411857908E-01
 cg2d: Sum(rhs),rhsMax =  -8.23854873210905E-14  3.97490887867363E-01
 cg2d: Sum(rhs),rhsMax =  -9.62736834697608E-14  3.98304016763723E-01
 cg2d: Sum(rhs),rhsMax =   3.68004238193720E-14  3.99119734242729E-01
 cg2d: Sum(rhs),rhsMax =  -6.40286434983039E-14  3.99935073894468E-01
 cg2d: Sum(rhs),rhsMax =  -1.44512873889724E-13  4.00746902585132E-01
 cg2d: Sum(rhs),rhsMax =   3.53259088647917E-14  4.01551852571194E-01
 cg2d: Sum(rhs),rhsMax =  -5.75928194024300E-15  4.02346027478846E-01
 cg2d: Sum(rhs),rhsMax =  -3.06699110552699E-15  4.03126033949211E-01
 cg2d: Sum(rhs),rhsMax =  -1.23859256184744E-15  4.03887162562455E-01
 cg2d: Sum(rhs),rhsMax =  -8.01268773553687E-14  4.04625853451350E-01
 cg2d: Sum(rhs),rhsMax =   6.35255736902707E-14  4.05337942256575E-01
 cg2d: Sum(rhs),rhsMax =  -3.59851037856629E-14  4.06018256670512E-01
 cg2d: Sum(rhs),rhsMax =   1.02001740387436E-15  4.06662631616723E-01
 cg2d: Sum(rhs),rhsMax =  -7.22651105622418E-14  4.07266490722929E-01
 cg2d: Sum(rhs),rhsMax =  -3.57318341581703E-14  4.07825897125038E-01
 cg2d: Sum(rhs),rhsMax =   4.99808527898438E-14  4.08336402624756E-01
 cg2d: Sum(rhs),rhsMax =   2.17464934948453E-14  4.08793626540224E-01
 cg2d: Sum(rhs),rhsMax =   5.70446467840213E-14  4.09194010245210E-01
 cg2d: Sum(rhs),rhsMax =  -2.17291462600855E-14  4.09534138927809E-01
 cg2d: Sum(rhs),rhsMax =   2.21038465308965E-14  4.09811009390087E-01
 cg2d: Sum(rhs),rhsMax =   3.02188829515160E-14  4.10022077366739E-01
 cg2d: Sum(rhs),rhsMax =   8.01095301206090E-15  4.10165003371441E-01
 cg2d: Sum(rhs),rhsMax =   3.45209971719385E-15  4.10238170333789E-01
 cg2d: Sum(rhs),rhsMax =  -1.84921522539128E-14  4.10241158674890E-01
 cg2d: Sum(rhs),rhsMax =   1.24695392900165E-13  4.10173953718501E-01
 cg2d: Sum(rhs),rhsMax =   5.97404070656893E-14  4.10036702151499E-01
 cg2d: Sum(rhs),rhsMax =  -4.34235980506514E-14  4.09830221312174E-01
 cg2d: Sum(rhs),rhsMax =  -1.05988134935231E-13  4.09555393853967E-01
 cg2d: Sum(rhs),rhsMax =  -1.26551547019460E-13  4.09214181516800E-01
 cg2d: Sum(rhs),rhsMax =   1.10793318963687E-13  4.08808211629611E-01
 cg2d: Sum(rhs),rhsMax =  -4.96200303068406E-14  4.08341581524003E-01
 cg2d: Sum(rhs),rhsMax =  -1.53779766698392E-13  4.07817500905762E-01
 cg2d: Sum(rhs),rhsMax =   4.47177017637301E-14  4.07239695042833E-01
 cg2d: Sum(rhs),rhsMax =  -4.59701721133854E-15  4.06612235019079E-01
 cg2d: Sum(rhs),rhsMax =  -2.62186106159135E-14  4.05939713150413E-01
 cg2d: Sum(rhs),rhsMax =  -1.28431987267419E-13  4.05226950547796E-01
 cg2d: Sum(rhs),rhsMax =  -4.49154602399915E-14  4.04479066076926E-01
 cg2d: Sum(rhs),rhsMax =  -8.01546329309843E-14  4.03700562195273E-01
 cg2d: Sum(rhs),rhsMax =   8.49147141490647E-14  4.02896562492346E-01
 cg2d: Sum(rhs),rhsMax =  -1.86437670857131E-13  4.02071946070284E-01
 cg2d: Sum(rhs),rhsMax =  -1.49880108324396E-14  4.01231504174833E-01
 cg2d: Sum(rhs),rhsMax =  -1.89143839479655E-13  4.00379168707650E-01
 cg2d: Sum(rhs),rhsMax =   1.11018833015564E-13  3.99518425207529E-01
 cg2d: Sum(rhs),rhsMax =  -8.61116733474887E-14  3.98654066562564E-01
 cg2d: Sum(rhs),rhsMax =   7.29936944221521E-14  3.97789552443861E-01
 cg2d: Sum(rhs),rhsMax =  -3.15372727932584E-15  3.96928325301965E-01
 cg2d: Sum(rhs),rhsMax =  -4.73475425533110E-14  3.96074290732375E-01
 cg2d: Sum(rhs),rhsMax =  -1.40443212615082E-14  3.95229836437146E-01
 cg2d: Sum(rhs),rhsMax =   1.29642824253651E-13  3.94397544981248E-01
 cg2d: Sum(rhs),rhsMax =  -5.30096799788993E-14  3.93579547389809E-01
 cg2d: Sum(rhs),rhsMax =   2.64996358190217E-14  3.92777649097673E-01
 cg2d: Sum(rhs),rhsMax =  -7.42080008553359E-14  3.92147137545532E-01
 cg2d: Sum(rhs),rhsMax =  -8.94354035274603E-14  3.91799949915773E-01
 cg2d: Sum(rhs),rhsMax =  -1.66422431391311E-13  3.91448125901937E-01
 cg2d: Sum(rhs),rhsMax =  -1.70419234279962E-13  3.91089663425998E-01
 cg2d: Sum(rhs),rhsMax =  -2.41813513657263E-13  3.90722281102486E-01
 cg2d: Sum(rhs),rhsMax =  -1.25326832245420E-13  3.90341867112180E-01
 cg2d: Sum(rhs),rhsMax =  -1.12153342168853E-13  3.89945983834524E-01
 cg2d: Sum(rhs),rhsMax =  -3.71855324310388E-14  3.89526906844291E-01
 cg2d: Sum(rhs),rhsMax =   9.26238252763056E-14  3.89085556413748E-01
 cg2d: Sum(rhs),rhsMax =   5.18994569542741E-14  3.88621060806027E-01
 cg2d: Sum(rhs),rhsMax =  -1.17083426287579E-13  3.88131170963681E-01
 cg2d: Sum(rhs),rhsMax =  -8.34506075353403E-14  3.87612036533127E-01
 cg2d: Sum(rhs),rhsMax =  -7.20985771085481E-14  3.87062460728183E-01
 cg2d: Sum(rhs),rhsMax =   7.29589999526326E-14  3.86482414335977E-01
 cg2d: Sum(rhs),rhsMax =  -1.05224856605801E-13  3.85872541843787E-01
 cg2d: Sum(rhs),rhsMax =  -4.67022254202476E-14  3.85231739306232E-01
 cg2d: Sum(rhs),rhsMax =  -1.21621462900734E-13  3.84562387561676E-01
 cg2d: Sum(rhs),rhsMax =  -7.17273462846890E-14  3.84226954583390E-01
 cg2d: Sum(rhs),rhsMax =   4.89261409164499E-14  3.84331656070535E-01
 cg2d: Sum(rhs),rhsMax =   2.87443679969357E-14  3.84432418049135E-01
 cg2d: Sum(rhs),rhsMax =  -2.41889841490206E-14  3.84529310529462E-01
 cg2d: Sum(rhs),rhsMax =  -2.39846337235505E-13  3.84623678205974E-01
 cg2d: Sum(rhs),rhsMax =  -3.44099748694759E-14  3.84716458206686E-01
 cg2d: Sum(rhs),rhsMax =   6.48855968954365E-14  3.84807479937771E-01
 cg2d: Sum(rhs),rhsMax =  -2.78842920975464E-13  3.84897110573411E-01
 cg2d: Sum(rhs),rhsMax =   1.41837930289768E-13  3.84985652951543E-01
 cg2d: Sum(rhs),rhsMax =  -1.48034362545957E-13  3.85073567363381E-01
 cg2d: Sum(rhs),rhsMax =  -1.27113597425677E-13  3.85160032333315E-01
 cg2d: Sum(rhs),rhsMax =   4.14633605227976E-14  3.85238435928837E-01
 cg2d: Sum(rhs),rhsMax =   3.56450979843714E-14  3.85308509246485E-01
 cg2d: Sum(rhs),rhsMax =  -5.45084810621432E-14  3.85369711672191E-01
 cg2d: Sum(rhs),rhsMax =  -5.34294830600857E-16  3.85421455165523E-01
 cg2d: Sum(rhs),rhsMax =  -2.29018193298458E-14  3.85464893605786E-01
 cg2d: Sum(rhs),rhsMax =  -6.35776153945500E-14  3.85502639135154E-01
 cg2d: Sum(rhs),rhsMax =  -2.93619295543834E-14  3.85536380471459E-01
 cg2d: Sum(rhs),rhsMax =  -2.82412981889024E-14  3.85567270182346E-01
 cg2d: Sum(rhs),rhsMax =  -4.03913014146440E-14  3.85596913561956E-01
 cg2d: Sum(rhs),rhsMax =  -1.08801856413265E-14  3.85625429341471E-01
 cg2d: Sum(rhs),rhsMax =   2.03101424567365E-14  3.85653921153758E-01
 cg2d: Sum(rhs),rhsMax =  -2.21003770839445E-15  3.85682375485234E-01
 cg2d: Sum(rhs),rhsMax =   2.05217787208056E-14  3.85711886718157E-01
 cg2d: Sum(rhs),rhsMax =  -8.77492523088108E-14  3.85743590017866E-01
 cg2d: Sum(rhs),rhsMax =  -3.20195259195799E-14  3.85778276262520E-01
 cg2d: Sum(rhs),rhsMax =   5.52891066263328E-14  3.85815657933417E-01
 cg2d: Sum(rhs),rhsMax =   4.13280520916715E-14  3.85856078128563E-01
 cg2d: Sum(rhs),rhsMax =  -5.11639342004599E-14  3.85900092205562E-01
 cg2d: Sum(rhs),rhsMax =  -9.93684301509035E-14  3.85946997777642E-01
 cg2d: Sum(rhs),rhsMax =  -3.44793638085150E-14  3.85996230289410E-01
 cg2d: Sum(rhs),rhsMax =  -1.08760223049842E-13  3.86049002925088E-01
 cg2d: Sum(rhs),rhsMax =  -7.91554322088217E-14  3.86106327634823E-01
 cg2d: Sum(rhs),rhsMax =  -5.23643628458359E-14  3.86168527146414E-01
 cg2d: Sum(rhs),rhsMax =  -2.13440376484186E-14  3.86237245795536E-01
 cg2d: Sum(rhs),rhsMax =  -1.06303854607859E-13  3.86306519980400E-01
 cg2d: Sum(rhs),rhsMax =  -2.93133572970561E-14  3.86376232640215E-01
 cg2d: Sum(rhs),rhsMax =  -1.16111981141032E-13  3.86446966237197E-01
 cg2d: Sum(rhs),rhsMax =  -1.85435000688017E-13  3.86520126184927E-01
 cg2d: Sum(rhs),rhsMax =  -3.79453413135167E-14  3.86597294726164E-01
 cg2d: Sum(rhs),rhsMax =   4.50403603302618E-14  3.86679737014052E-01
 cg2d: Sum(rhs),rhsMax =  -9.86467851848971E-14  3.86767972328677E-01
 cg2d: Sum(rhs),rhsMax =  -1.26752774942673E-13  3.86863679881366E-01
 cg2d: Sum(rhs),rhsMax =   1.01689490161760E-14  3.86968326067165E-01
 cg2d: Sum(rhs),rhsMax =  -2.93098878501041E-14  3.87083742976338E-01
 cg2d: Sum(rhs),rhsMax =  -5.70619940187811E-14  3.87211728429123E-01
 cg2d: Sum(rhs),rhsMax =  -2.54449239456278E-14  3.87354020669177E-01
 cg2d: Sum(rhs),rhsMax =  -1.21236354289067E-13  3.87512478976125E-01
 cg2d: Sum(rhs),rhsMax =   1.40408518145563E-14  3.87688226803949E-01
 cg2d: Sum(rhs),rhsMax =  -2.18866591517042E-13  3.87878723009842E-01
 cg2d: Sum(rhs),rhsMax =  -1.16705256569816E-13  3.88080415587552E-01
 cg2d: Sum(rhs),rhsMax =  -3.39693551065778E-14  3.88294094593610E-01
 cg2d: Sum(rhs),rhsMax =   7.49018902457266E-14  3.88519621214787E-01
 cg2d: Sum(rhs),rhsMax =  -7.59219076496009E-14  3.88756881985071E-01
 cg2d: Sum(rhs),rhsMax =  -1.64347702114043E-13  3.89005538384005E-01
 cg2d: Sum(rhs),rhsMax =   6.63705201908726E-15  3.89265683836649E-01
 cg2d: Sum(rhs),rhsMax =  -8.60769788779692E-15  3.89537673468670E-01
 cg2d: Sum(rhs),rhsMax =   6.29808705188140E-14  3.89821952289150E-01
 cg2d: Sum(rhs),rhsMax =   6.29357677084386E-15  3.90119916282199E-01
 cg2d: Sum(rhs),rhsMax =   1.66994890138383E-13  3.90430776181294E-01
 cg2d: Sum(rhs),rhsMax =  -4.92314522482218E-14  3.90753081477108E-01
 cg2d: Sum(rhs),rhsMax =  -1.24102117471381E-14  3.91084834514891E-01
 cg2d: Sum(rhs),rhsMax =  -2.74086309204336E-15  3.91425116855987E-01
 cg2d: Sum(rhs),rhsMax =   4.14772383106055E-14  3.91772492819494E-01
 cg2d: Sum(rhs),rhsMax =  -6.85874967931710E-14  3.92126009947747E-01
 cg2d: Sum(rhs),rhsMax =   5.60732016374743E-14  3.92484560592947E-01
 cg2d: Sum(rhs),rhsMax =   6.38204766811867E-14  3.92846751523873E-01
 cg2d: Sum(rhs),rhsMax =   7.66747776381749E-16  3.93210181270158E-01
 cg2d: Sum(rhs),rhsMax =  -3.48956974427495E-14  3.93572980398504E-01
 cg2d: Sum(rhs),rhsMax =  -7.29485916117767E-14  3.93933494865360E-01
 cg2d: Sum(rhs),rhsMax =   3.67483821150927E-14  3.94288823640876E-01
 cg2d: Sum(rhs),rhsMax =  -8.54975812369929E-14  3.94637290233218E-01
 cg2d: Sum(rhs),rhsMax =   7.98319743644527E-15  3.94969239490918E-01
 cg2d: Sum(rhs),rhsMax =  -8.02413691047832E-14  3.95283072774253E-01
 cg2d: Sum(rhs),rhsMax =   7.95752352900081E-14  3.95577834174915E-01
 cg2d: Sum(rhs),rhsMax =   5.20070098097847E-15  3.95853148245588E-01
 cg2d: Sum(rhs),rhsMax =  -1.17347104255927E-13  3.96109158740427E-01
 cg2d: Sum(rhs),rhsMax =   1.14110110249754E-14  3.96345817726360E-01
 cg2d: Sum(rhs),rhsMax =  -1.29587313102419E-13  3.96564072026336E-01
 cg2d: Sum(rhs),rhsMax =  -1.19584897539937E-13  3.96764636774663E-01
 cg2d: Sum(rhs),rhsMax =  -8.30724378175773E-14  3.96948664114308E-01
 cg2d: Sum(rhs),rhsMax =  -1.21229415395163E-13  3.97116263534429E-01
 cg2d: Sum(rhs),rhsMax =   1.48700496360732E-14  3.97269419869450E-01
 cg2d: Sum(rhs),rhsMax =  -1.08940634291343E-13  3.97410589381653E-01
 cg2d: Sum(rhs),rhsMax =   3.24809623641897E-14  3.97542382181097E-01
 cg2d: Sum(rhs),rhsMax =  -1.27623606127614E-13  3.97667544629126E-01
 cg2d: Sum(rhs),rhsMax =   5.46888923036448E-14  3.97789010052626E-01
 cg2d: Sum(rhs),rhsMax =   2.45740927606874E-14  3.97909743560118E-01
 cg2d: Sum(rhs),rhsMax =  -1.13319076344709E-13  3.98033234449370E-01
 cg2d: Sum(rhs),rhsMax =   1.50122969611033E-14  3.98163284467124E-01
 cg2d: Sum(rhs),rhsMax =  -6.54060139382295E-14  3.98298968553572E-01
 cg2d: Sum(rhs),rhsMax =  -1.57821672397418E-13  3.98437806917643E-01
 cg2d: Sum(rhs),rhsMax =   3.97702704102443E-14  3.98580311793315E-01
 cg2d: Sum(rhs),rhsMax =  -1.51753609678451E-13  3.98729691219350E-01
 cg2d: Sum(rhs),rhsMax =  -6.83585132943421E-14  3.98887382989408E-01
 cg2d: Sum(rhs),rhsMax =   8.63198401646059E-15  3.99055762953563E-01
 cg2d: Sum(rhs),rhsMax =   1.17243020847368E-13  3.99237662959016E-01
 cg2d: Sum(rhs),rhsMax =  -8.94423424213642E-15  3.99437155528824E-01
 cg2d: Sum(rhs),rhsMax =  -5.33809108027583E-14  3.99655517815981E-01
 cg2d: Sum(rhs),rhsMax =   2.39877562258073E-14  3.99894522777246E-01
 cg2d: Sum(rhs),rhsMax =  -4.98455443587176E-14  4.00155360259462E-01
 cg2d: Sum(rhs),rhsMax =   4.52832216168986E-14  4.00439423095134E-01
 cg2d: Sum(rhs),rhsMax =   6.04134797743683E-14  4.00747744318470E-01
 cg2d: Sum(rhs),rhsMax =  -1.21833099164803E-13  4.01081737573951E-01
 cg2d: Sum(rhs),rhsMax =  -2.01071798100472E-13  4.01440928427858E-01
 cg2d: Sum(rhs),rhsMax =  -1.61537450082960E-14  4.01823873434771E-01
 cg2d: Sum(rhs),rhsMax =  -1.29028732143155E-14  4.02229426109258E-01
 cg2d: Sum(rhs),rhsMax =  -2.39044894989604E-15  4.02657143986545E-01
 cg2d: Sum(rhs),rhsMax =  -5.69579106102225E-14  4.03106379440287E-01
 cg2d: Sum(rhs),rhsMax =  -1.34163513632046E-14  4.03574254224477E-01
 cg2d: Sum(rhs),rhsMax =   1.96023752785379E-15  4.04054232774780E-01
 cg2d: Sum(rhs),rhsMax =  -6.40286434983039E-14  4.04540646806977E-01
 cg2d: Sum(rhs),rhsMax =  -1.34316169297932E-13  4.05031292512733E-01
 cg2d: Sum(rhs),rhsMax =  -4.68722283208933E-14  4.05524397160841E-01
 cg2d: Sum(rhs),rhsMax =  -7.79411257756379E-14  4.06018105036968E-01
 cg2d: Sum(rhs),rhsMax =   1.47104550762833E-15  4.06510820924732E-01
 cg2d: Sum(rhs),rhsMax =  -6.45317133063372E-16  4.07000988624795E-01
 cg2d: Sum(rhs),rhsMax =  -4.61505833548870E-14  4.07486844770890E-01
 cg2d: Sum(rhs),rhsMax =   1.18186710418300E-13  4.07967272424570E-01
 cg2d: Sum(rhs),rhsMax =  -5.98340821333920E-14  4.08441107806539E-01
 cg2d: Sum(rhs),rhsMax =  -1.45716771982052E-16  4.08907146629012E-01
 cg2d: Sum(rhs),rhsMax =   4.81767403748279E-14  4.09364203118528E-01
 cg2d: Sum(rhs),rhsMax =   1.58831281460436E-14  4.09811255678726E-01
 cg2d: Sum(rhs),rhsMax =  -1.10588621593521E-13  4.10245895013095E-01
 cg2d: Sum(rhs),rhsMax =  -1.25767452008319E-14  4.10666612305224E-01
 cg2d: Sum(rhs),rhsMax =   1.73507042067200E-14  4.11072503871890E-01
 cg2d: Sum(rhs),rhsMax =   1.11872316965744E-13  4.11463552461921E-01
 cg2d: Sum(rhs),rhsMax =   2.80747647352086E-14  4.11838543990206E-01
 cg2d: Sum(rhs),rhsMax =  -1.92387772379732E-13  4.12191697668634E-01
 cg2d: Sum(rhs),rhsMax =   3.06005221162309E-14  4.12520401508547E-01
 cg2d: Sum(rhs),rhsMax =   1.03382580274314E-13  4.12824216795165E-01
 cg2d: Sum(rhs),rhsMax =  -1.11022302462516E-15  4.13103255858643E-01
 cg2d: Sum(rhs),rhsMax =  -1.47281492557383E-13  4.13357252883123E-01
 cg2d: Sum(rhs),rhsMax =   1.86413384728468E-14  4.13586888674389E-01
 cg2d: Sum(rhs),rhsMax =   1.09488806909752E-13  4.13793452949482E-01
 cg2d: Sum(rhs),rhsMax =  -7.92421683826205E-15  4.13978761276043E-01
 cg2d: Sum(rhs),rhsMax =  -2.32418251311373E-14  4.14144839372614E-01
 cg2d: Sum(rhs),rhsMax =  -4.99739138959399E-14  4.14294084307984E-01
 cg2d: Sum(rhs),rhsMax =  -7.83574594098724E-14  4.14429041130291E-01
 cg2d: Sum(rhs),rhsMax =   5.10771980266611E-14  4.14552024869287E-01
 cg2d: Sum(rhs),rhsMax =   1.87704018994594E-13  4.14665723249177E-01
 cg2d: Sum(rhs),rhsMax =   1.40824851779797E-14  4.14773191204640E-01
 cg2d: Sum(rhs),rhsMax =   6.35255736902707E-15  4.14877010061587E-01
 cg2d: Sum(rhs),rhsMax =   5.37382638388095E-14  4.14979623523721E-01
 cg2d: Sum(rhs),rhsMax =  -1.32102662142586E-13  4.15082212767453E-01
 cg2d: Sum(rhs),rhsMax =  -1.94219640370363E-14  4.15186085766482E-01
 cg2d: Sum(rhs),rhsMax =  -2.65135136068295E-14  4.15293670671660E-01
 cg2d: Sum(rhs),rhsMax =  -4.38746261544054E-14  4.15406596858808E-01
 cg2d: Sum(rhs),rhsMax =  -4.24174584345849E-14  4.15524881698550E-01
 cg2d: Sum(rhs),rhsMax =   6.28629093224475E-14  4.15650689041525E-01
 cg2d: Sum(rhs),rhsMax =  -3.14921699828830E-14  4.15786045629631E-01
 cg2d: Sum(rhs),rhsMax =  -9.53959133909166E-14  4.15930735417727E-01
 cg2d: Sum(rhs),rhsMax =  -8.20836454362706E-14  4.16080987328755E-01
 cg2d: Sum(rhs),rhsMax =   1.46181677873614E-13  4.16238743944024E-01
 cg2d: Sum(rhs),rhsMax =   1.13398873624604E-13  4.16406240857007E-01
 cg2d: Sum(rhs),rhsMax =  -6.78970768497322E-14  4.16585654792649E-01
 cg2d: Sum(rhs),rhsMax =  -4.66467142690163E-14  4.16779515437654E-01
 cg2d: Sum(rhs),rhsMax =   7.48845430109668E-14  4.16989770820755E-01
 cg2d: Sum(rhs),rhsMax =  -6.33798569182886E-14  4.17218191956603E-01
 cg2d: Sum(rhs),rhsMax =  -4.76910178015544E-14  4.17466250008804E-01
 cg2d: Sum(rhs),rhsMax =  -5.29992716380434E-14  4.17734370074764E-01
 cg2d: Sum(rhs),rhsMax =   1.83394965880268E-14  4.18130868631768E-01
 cg2d: Sum(rhs),rhsMax =   4.55850635017185E-14  4.18551128015064E-01
 cg2d: Sum(rhs),rhsMax =  -1.06661207643910E-13  4.18993136516870E-01
 cg2d: Sum(rhs),rhsMax =  -1.60853969033425E-13  4.19455579853222E-01
 cg2d: Sum(rhs),rhsMax =   5.73430192218893E-14  4.19933883896406E-01
 cg2d: Sum(rhs),rhsMax =   1.80550019379666E-14  4.20428184728091E-01
 cg2d: Sum(rhs),rhsMax =  -1.27134414107388E-13  4.20936608537834E-01
 cg2d: Sum(rhs),rhsMax =   3.80424858281714E-14  4.21458946934149E-01
 cg2d: Sum(rhs),rhsMax =  -1.81868409221408E-14  4.21994720021069E-01
 cg2d: Sum(rhs),rhsMax =   1.64580155059824E-13  4.22542109408456E-01
 cg2d: Sum(rhs),rhsMax =   6.73766598069392E-15  4.23100805026557E-01
 cg2d: Sum(rhs),rhsMax =  -3.63528651625700E-14  4.23669795682106E-01
 cg2d: Sum(rhs),rhsMax =   8.89080475907633E-14  4.24247777506094E-01
 cg2d: Sum(rhs),rhsMax =  -1.32397565133502E-13  4.24834119505855E-01
 cg2d: Sum(rhs),rhsMax =   4.85618489864947E-14  4.25428241955859E-01
 cg2d: Sum(rhs),rhsMax =  -3.55271367880050E-14  4.26028869975397E-01
 cg2d: Sum(rhs),rhsMax =  -3.65436847449274E-14  4.26635277903532E-01
 cg2d: Sum(rhs),rhsMax =   1.00155994608997E-13  4.27246769688725E-01
 cg2d: Sum(rhs),rhsMax =  -8.94700979969798E-14  4.27862700696405E-01
 cg2d: Sum(rhs),rhsMax =  -8.89739670828504E-14  4.28482791524948E-01
 cg2d: Sum(rhs),rhsMax =  -8.34714242170520E-14  4.29105903040756E-01
 cg2d: Sum(rhs),rhsMax =  -1.12552328568327E-13  4.29730832210022E-01
 cg2d: Sum(rhs),rhsMax =  -2.27172447520019E-13  4.30355168859535E-01
 cg2d: Sum(rhs),rhsMax =  -9.87022963361284E-14  4.30977727721413E-01
 cg2d: Sum(rhs),rhsMax =  -9.10591047009746E-14  4.31597135451536E-01
 cg2d: Sum(rhs),rhsMax =  -1.01075398051265E-13  4.32212175995297E-01
 cg2d: Sum(rhs),rhsMax =   5.79120085220097E-14  4.32821999818557E-01
 cg2d: Sum(rhs),rhsMax =   5.74783276530155E-14  4.33422080358644E-01
 cg2d: Sum(rhs),rhsMax =  -9.35605759533331E-14  4.34004581401242E-01
 cg2d: Sum(rhs),rhsMax =   1.67092034653038E-13  4.34569192660408E-01
 cg2d: Sum(rhs),rhsMax =  -1.70523317688520E-13  4.35115806155836E-01
 cg2d: Sum(rhs),rhsMax =   9.09342046107042E-14  4.35644468695509E-01
 cg2d: Sum(rhs),rhsMax =  -5.43454170554014E-14  4.36155843483015E-01
 cg2d: Sum(rhs),rhsMax =  -2.08374983934334E-14  4.36650272172524E-01
 cg2d: Sum(rhs),rhsMax =  -3.45626305353619E-14  4.37129163482748E-01
 cg2d: Sum(rhs),rhsMax =   4.31078783780237E-14  4.37592860665295E-01
 cg2d: Sum(rhs),rhsMax =  -3.41775219236951E-14  4.38042421930960E-01
 cg2d: Sum(rhs),rhsMax =  -3.42434414157822E-14  4.38479029731982E-01
 cg2d: Sum(rhs),rhsMax =  -1.39405847976448E-13  4.38904323163539E-01
 cg2d: Sum(rhs),rhsMax =   5.02688168868559E-14  4.39319958975401E-01
 cg2d: Sum(rhs),rhsMax =  -1.85025605947686E-14  4.39726862702133E-01
 cg2d: Sum(rhs),rhsMax =  -4.60048665829049E-14  4.40125126225799E-01
 cg2d: Sum(rhs),rhsMax =  -1.05176284348474E-13  4.40515834200084E-01
 cg2d: Sum(rhs),rhsMax =  -1.02730324247347E-14  4.40899688072797E-01
 cg2d: Sum(rhs),rhsMax =  -1.15994019944665E-13  4.41275404839210E-01
 cg2d: Sum(rhs),rhsMax =  -5.67948466034807E-14  4.41635971802872E-01
 cg2d: Sum(rhs),rhsMax =  -1.73090708432966E-14  4.41981614219020E-01
 cg2d: Sum(rhs),rhsMax =  -7.05616121088326E-14  4.42311767809994E-01
 cg2d: Sum(rhs),rhsMax =  -6.86395384974503E-14  4.42626297530460E-01
 cg2d: Sum(rhs),rhsMax =   1.13669490486856E-13  4.42925282453683E-01
 cg2d: Sum(rhs),rhsMax =  -1.51968715389472E-13  4.43208535497664E-01
 cg2d: Sum(rhs),rhsMax =   2.47579734491410E-14  4.43476936096035E-01
 cg2d: Sum(rhs),rhsMax =   1.51892387556529E-14  4.43731234006374E-01
 cg2d: Sum(rhs),rhsMax =   2.95978519471163E-14  4.43972464496913E-01
 cg2d: Sum(rhs),rhsMax =  -5.84705894812743E-14  4.44201823421935E-01
 cg2d: Sum(rhs),rhsMax =  -1.66838765025545E-13  4.44420463746222E-01
 cg2d: Sum(rhs),rhsMax =   4.06202849134729E-14  4.44629617700599E-01
 cg2d: Sum(rhs),rhsMax =  -3.40838468559923E-14  4.44830523754458E-01
 cg2d: Sum(rhs),rhsMax =   1.71321290487469E-14  4.45024125896482E-01
 cg2d: Sum(rhs),rhsMax =  -1.24119464706141E-13  4.45211773148268E-01
 cg2d: Sum(rhs),rhsMax =  -6.74946210033056E-14  4.45394350881611E-01
 cg2d: Sum(rhs),rhsMax =  -4.00166011438330E-14  4.45572199231310E-01
 cg2d: Sum(rhs),rhsMax =   2.63192245775201E-14  4.45746458518494E-01
 cg2d: Sum(rhs),rhsMax =   5.19723153402651E-14  4.45917414386122E-01
 cg2d: Sum(rhs),rhsMax =  -2.21420104473680E-14  4.45984705688554E-01
 cg2d: Sum(rhs),rhsMax =  -8.24756929418413E-14  4.46046866585334E-01
 cg2d: Sum(rhs),rhsMax =  -6.62039867371789E-14  4.46105211730444E-01
 cg2d: Sum(rhs),rhsMax =   2.22391549620227E-15  4.46158319821108E-01
 cg2d: Sum(rhs),rhsMax =   1.03590747091431E-13  4.46204878384073E-01
 cg2d: Sum(rhs),rhsMax =   1.14346032642487E-13  4.46240769691865E-01
 cg2d: Sum(rhs),rhsMax =  -1.09207781706644E-13  4.46266946962041E-01
 cg2d: Sum(rhs),rhsMax =  -1.25961741037628E-13  4.46285034997455E-01
 cg2d: Sum(rhs),rhsMax =  -5.06157615820513E-14  4.46298912003869E-01
 cg2d: Sum(rhs),rhsMax =  -1.96741928304434E-13  4.46309526962605E-01
 cg2d: Sum(rhs),rhsMax =  -8.41791913952505E-14  4.46317721357839E-01
 cg2d: Sum(rhs),rhsMax =  -1.34059430223488E-13  4.46324688969581E-01
 cg2d: Sum(rhs),rhsMax =  -1.59039448277554E-13  4.46333117656067E-01
 cg2d: Sum(rhs),rhsMax =   1.06591818704871E-13  4.46346188339038E-01
 cg2d: Sum(rhs),rhsMax =  -8.21911982917811E-15  4.46366283668655E-01
 cg2d: Sum(rhs),rhsMax =   7.35661531692244E-14  4.46395354029872E-01
 cg2d: Sum(rhs),rhsMax =  -4.40203429263875E-14  4.46435115412018E-01
 cg2d: Sum(rhs),rhsMax =   5.04318808935977E-14  4.46483628054020E-01
 cg2d: Sum(rhs),rhsMax =  -2.57432963834958E-14  4.46536821768980E-01
 cg2d: Sum(rhs),rhsMax =   4.45025960527090E-14  4.46595383888868E-01
 cg2d: Sum(rhs),rhsMax =   1.47892115220927E-13  4.46660095922032E-01
 cg2d: Sum(rhs),rhsMax =   2.54345156047719E-14  4.46735957270138E-01
 cg2d: Sum(rhs),rhsMax =  -1.22100246580104E-13  4.46819269297604E-01
 cg2d: Sum(rhs),rhsMax =  -1.09943304460458E-13  4.46910489114896E-01
 cg2d: Sum(rhs),rhsMax =   9.21485110438880E-15  4.47008972464084E-01
 cg2d: Sum(rhs),rhsMax =   7.13144820974065E-14  4.47114674583205E-01
 cg2d: Sum(rhs),rhsMax =  -1.56472057533108E-14  4.47227762580457E-01
 cg2d: Sum(rhs),rhsMax =  -2.29781471627888E-14  4.47348337174049E-01
 cg2d: Sum(rhs),rhsMax =  -1.04818931312423E-13  4.47476299277797E-01
 cg2d: Sum(rhs),rhsMax =   2.24230356504762E-14  4.47611384374782E-01
 cg2d: Sum(rhs),rhsMax =  -7.40796313181136E-14  4.47753282420809E-01
 cg2d: Sum(rhs),rhsMax =   1.12996417778177E-13  4.47901452948866E-01
 cg2d: Sum(rhs),rhsMax =   3.31644434137246E-14  4.48055224346663E-01
 cg2d: Sum(rhs),rhsMax =   1.25399690631411E-13  4.48203016882391E-01
 cg2d: Sum(rhs),rhsMax =  -4.66987559732956E-15  4.48355028907148E-01
 cg2d: Sum(rhs),rhsMax =   3.53224394178397E-14  4.48509543680949E-01
 cg2d: Sum(rhs),rhsMax =   1.17916093556047E-13  4.48664124491952E-01
 cg2d: Sum(rhs),rhsMax =  -9.28528087751346E-14  4.48817869044890E-01
 cg2d: Sum(rhs),rhsMax =  -2.00436889308264E-13  4.48969912497583E-01
 cg2d: Sum(rhs),rhsMax =  -9.81922876341912E-14  4.49119633159660E-01
 cg2d: Sum(rhs),rhsMax =   1.75970349403087E-14  4.49265547037582E-01
 cg2d: Sum(rhs),rhsMax =  -5.99589822236624E-14  4.49406914512019E-01
 cg2d: Sum(rhs),rhsMax =   9.02194985386018E-14  4.49543615986011E-01
 cg2d: Sum(rhs),rhsMax =   5.22810961189890E-14  4.49675843194571E-01
 cg2d: Sum(rhs),rhsMax =   3.04860303668164E-14  4.49800055105295E-01
 cg2d: Sum(rhs),rhsMax =  -6.44345687916825E-14  4.49920256327610E-01
 cg2d: Sum(rhs),rhsMax =   3.31817906484844E-14  4.50038061024613E-01
 cg2d: Sum(rhs),rhsMax =  -1.59171287261728E-13  4.50154362701933E-01
 cg2d: Sum(rhs),rhsMax =  -1.28126675935647E-14  4.50270432672298E-01
 cg2d: Sum(rhs),rhsMax =  -9.28458698812307E-14  4.50380962365663E-01
 cg2d: Sum(rhs),rhsMax =  -8.20073176033276E-14  4.50487458323063E-01
 cg2d: Sum(rhs),rhsMax =  -2.97845081931314E-13  4.50591937672055E-01
 cg2d: Sum(rhs),rhsMax =  -1.07507752700187E-13  4.50696388562697E-01
 cg2d: Sum(rhs),rhsMax =   2.64788191373100E-14  4.50807496325685E-01
 cg2d: Sum(rhs),rhsMax =   2.88380430646384E-14  4.50925942698331E-01
 cg2d: Sum(rhs),rhsMax =  -3.03125580192187E-14  4.51049698618954E-01
 cg2d: Sum(rhs),rhsMax =   1.36363142999585E-13  4.51180617938755E-01
 cg2d: Sum(rhs),rhsMax =  -3.55479534697167E-14  4.51320381121174E-01
 cg2d: Sum(rhs),rhsMax =   3.30291349825984E-15  4.51469419755550E-01
 cg2d: Sum(rhs),rhsMax =  -7.64319163515381E-14  4.51629008793174E-01
 cg2d: Sum(rhs),rhsMax =   6.10206329909602E-14  4.51800079391561E-01
 cg2d: Sum(rhs),rhsMax =   7.16614267926019E-14  4.51983241957551E-01
 cg2d: Sum(rhs),rhsMax =  -5.13200593132979E-14  4.52178453804391E-01
 cg2d: Sum(rhs),rhsMax =  -3.70432851060087E-14  4.52384637612722E-01
 cg2d: Sum(rhs),rhsMax =  -1.24525389999519E-13  4.52601249755870E-01
 cg2d: Sum(rhs),rhsMax =  -1.26038068870571E-13  4.52827509939506E-01
 cg2d: Sum(rhs),rhsMax =  -1.18287324379907E-13  4.53061295361454E-01
 cg2d: Sum(rhs),rhsMax =  -5.85642645489770E-14  4.53296349681106E-01
 cg2d: Sum(rhs),rhsMax =  -2.17222073661816E-14  4.53530888143180E-01
 cg2d: Sum(rhs),rhsMax =  -7.66088581460878E-14  4.53763085414759E-01
 cg2d: Sum(rhs),rhsMax =  -5.58164625630297E-14  4.53990806900054E-01
 cg2d: Sum(rhs),rhsMax =  -4.61783389305026E-14  4.54212024126691E-01
 cg2d: Sum(rhs),rhsMax =  -5.93552984540224E-14  4.54425008730027E-01
 cg2d: Sum(rhs),rhsMax =   2.34985642055818E-14  4.54626236231738E-01
 cg2d: Sum(rhs),rhsMax =  -7.46173955956664E-14  4.54813734144554E-01
 cg2d: Sum(rhs),rhsMax =  -9.31997534703299E-14  4.54985197269477E-01
 cg2d: Sum(rhs),rhsMax =   7.60849716563428E-15  4.55138289363351E-01
 cg2d: Sum(rhs),rhsMax =   4.39925873507718E-14  4.55270632588437E-01
 cg2d: Sum(rhs),rhsMax =  -7.24489912506954E-14  4.55378718387970E-01
 cg2d: Sum(rhs),rhsMax =  -4.35276814592100E-14  4.55460415207785E-01
 cg2d: Sum(rhs),rhsMax =   7.20465354042688E-14  4.55515020149928E-01
 cg2d: Sum(rhs),rhsMax =  -1.10210451875759E-13  4.55541940340029E-01
 cg2d: Sum(rhs),rhsMax =  -4.26186863577982E-14  4.55539604230478E-01
 cg2d: Sum(rhs),rhsMax =   4.90475715597682E-14  4.55505030417739E-01
 cg2d: Sum(rhs),rhsMax =   2.20726215083289E-14  4.55440482853035E-01
 cg2d: Sum(rhs),rhsMax =  -4.89296103634018E-14  4.55348046101577E-01
 cg2d: Sum(rhs),rhsMax =  -8.36310187768419E-14  4.55229024441739E-01
 cg2d: Sum(rhs),rhsMax =  -7.19667381243738E-14  4.55084955253580E-01
 cg2d: Sum(rhs),rhsMax =  -5.31831523264970E-14  4.54919648971537E-01
 cg2d: Sum(rhs),rhsMax =  -1.88044024795886E-14  4.54737104784256E-01
 cg2d: Sum(rhs),rhsMax =   6.87748469285765E-14  4.54541090181866E-01
 cg2d: Sum(rhs),rhsMax =  -2.28983498828939E-14  4.54335131186482E-01
 cg2d: Sum(rhs),rhsMax =   2.50528764400570E-14  4.54122843495256E-01
 cg2d: Sum(rhs),rhsMax =  -6.93993473799281E-14  4.53904329071531E-01
 cg2d: Sum(rhs),rhsMax =  -1.27325233689746E-13  4.53678467212065E-01
 cg2d: Sum(rhs),rhsMax =  -1.26166438407793E-13  4.53447019741696E-01
 cg2d: Sum(rhs),rhsMax =  -3.49928419574042E-14  4.53212335233290E-01
 cg2d: Sum(rhs),rhsMax =  -3.13950254682283E-14  4.52974217709776E-01
 cg2d: Sum(rhs),rhsMax =  -3.74214548237717E-14  4.52736417601827E-01
 cg2d: Sum(rhs),rhsMax =   8.15666978404295E-15  4.52500695867156E-01
 cg2d: Sum(rhs),rhsMax =   3.91249532771809E-14  4.52269923796002E-01
 cg2d: Sum(rhs),rhsMax =   3.15511505810662E-14  4.52044088232918E-01
 cg2d: Sum(rhs),rhsMax =  -1.03028696685215E-13  4.51823231908676E-01
 cg2d: Sum(rhs),rhsMax =   4.77881623162091E-14  4.51608385276259E-01
 cg2d: Sum(rhs),rhsMax =  -4.06653877238483E-14  4.51400585016794E-01
 cg2d: Sum(rhs),rhsMax =  -3.66165431309184E-14  4.51200590729932E-01
 cg2d: Sum(rhs),rhsMax =   3.65749097674950E-14  4.51008868029771E-01
 cg2d: Sum(rhs),rhsMax =   2.06397399171721E-14  4.50825722659360E-01
 cg2d: Sum(rhs),rhsMax =  -1.03500541470680E-13  4.50651349009429E-01
 cg2d: Sum(rhs),rhsMax =   6.20337115009306E-14  4.50515212644502E-01
 cg2d: Sum(rhs),rhsMax =  -7.27091997720919E-14  4.50555066999697E-01
 cg2d: Sum(rhs),rhsMax =  -1.83880688453542E-16  4.50606945663902E-01
 cg2d: Sum(rhs),rhsMax =   6.81815714997924E-14  4.50669881677272E-01
 cg2d: Sum(rhs),rhsMax =  -1.18339366084186E-13  4.50742756236989E-01
 cg2d: Sum(rhs),rhsMax =  -6.55725473919233E-15  4.50824339985567E-01
 cg2d: Sum(rhs),rhsMax =  -6.63601118500168E-14  4.50913398873638E-01
 cg2d: Sum(rhs),rhsMax =   4.03461986042686E-14  4.51008597314442E-01
 cg2d: Sum(rhs),rhsMax =  -4.20358192698700E-14  4.51108540374981E-01
 cg2d: Sum(rhs),rhsMax =   4.76355066503231E-15  4.51211819938670E-01
 cg2d: Sum(rhs),rhsMax =   1.96509475358653E-14  4.51317083439810E-01
 cg2d: Sum(rhs),rhsMax =   4.68375338513738E-16  4.51421997316962E-01
 cg2d: Sum(rhs),rhsMax =   8.94076479518446E-15  4.51525036437650E-01
 cg2d: Sum(rhs),rhsMax =  -1.49557449757864E-13  4.51625757562979E-01
 cg2d: Sum(rhs),rhsMax =  -7.36598282369272E-14  4.51723973647963E-01
 cg2d: Sum(rhs),rhsMax =  -2.83523204913649E-14  4.51819732124396E-01
 cg2d: Sum(rhs),rhsMax =  -8.38010216774876E-14  4.51912335661629E-01
 cg2d: Sum(rhs),rhsMax =   1.51156864802715E-13  4.51999895878353E-01
 cg2d: Sum(rhs),rhsMax =  -3.31956684362922E-14  4.52081861948523E-01
 cg2d: Sum(rhs),rhsMax =  -2.07552725006721E-13  4.52157830765895E-01
 cg2d: Sum(rhs),rhsMax =   1.03458908107257E-14  4.52227632282679E-01
 cg2d: Sum(rhs),rhsMax =   3.59400009752875E-14  4.52291159002928E-01
 cg2d: Sum(rhs),rhsMax =  -2.14793460795448E-14  4.52348575523004E-01
 cg2d: Sum(rhs),rhsMax =  -1.70141678523805E-14  4.52400016860614E-01
 cg2d: Sum(rhs),rhsMax =   1.07237135837934E-13  4.52445591123724E-01
 cg2d: Sum(rhs),rhsMax =   1.19661225372880E-13  4.52485527059058E-01
 cg2d: Sum(rhs),rhsMax =   2.96117297349241E-14  4.52520099859964E-01
 cg2d: Sum(rhs),rhsMax =  -8.82210970942765E-14  4.52549604757328E-01
 cg2d: Sum(rhs),rhsMax =   6.19782003496994E-14  4.52574370248380E-01
 cg2d: Sum(rhs),rhsMax =  -1.68719205273504E-14  4.52594672100701E-01
 cg2d: Sum(rhs),rhsMax =   1.22991894446756E-14  4.52610750755655E-01
 cg2d: Sum(rhs),rhsMax =  -6.36365959927332E-14  4.52622748064592E-01
 cg2d: Sum(rhs),rhsMax =  -2.37001390734903E-13  4.52630691697249E-01
 cg2d: Sum(rhs),rhsMax =  -6.74252320642665E-14  4.52634562892652E-01
 cg2d: Sum(rhs),rhsMax =   6.48335551911572E-14  4.52634291116796E-01
 cg2d: Sum(rhs),rhsMax =   2.73982225795777E-14  4.52629663972026E-01
 cg2d: Sum(rhs),rhsMax =  -5.98583682620557E-14  4.52620329744420E-01
 cg2d: Sum(rhs),rhsMax =  -2.06744343866916E-14  4.52606048170490E-01
 cg2d: Sum(rhs),rhsMax =   1.08867775905352E-13  4.52586066144568E-01
 cg2d: Sum(rhs),rhsMax =   4.09082490104851E-14  4.52559783241803E-01
 cg2d: Sum(rhs),rhsMax =   4.63275251494366E-14  4.52526547206638E-01
 cg2d: Sum(rhs),rhsMax =   2.03795313957755E-14  4.52485735524964E-01
 cg2d: Sum(rhs),rhsMax =  -1.28324434411908E-13  4.52436804988663E-01
 cg2d: Sum(rhs),rhsMax =   9.75018676907524E-14  4.52379672002365E-01
 cg2d: Sum(rhs),rhsMax =  -1.31335914366204E-13  4.52314438469069E-01
 cg2d: Sum(rhs),rhsMax =  -9.14927855699688E-14  4.52240634470652E-01
 cg2d: Sum(rhs),rhsMax =  -3.91631171936524E-14  4.52156389745453E-01
 cg2d: Sum(rhs),rhsMax =   1.48991929904696E-13  4.52059199094353E-01
 cg2d: Sum(rhs),rhsMax =   2.81406842272958E-14  4.51948252878301E-01
 cg2d: Sum(rhs),rhsMax =  -1.60822744010858E-13  4.51823517885996E-01
 cg2d: Sum(rhs),rhsMax =  -5.95634652711396E-14  4.51683907716136E-01
 cg2d: Sum(rhs),rhsMax =  -1.78478759549350E-13  4.51530732737292E-01
 cg2d: Sum(rhs),rhsMax =  -1.49463774690162E-14  4.51363963187790E-01
 cg2d: Sum(rhs),rhsMax =  -1.10154940724527E-14  4.51181987299845E-01
 cg2d: Sum(rhs),rhsMax =   5.81375225738867E-14  4.50984436083922E-01
 cg2d: Sum(rhs),rhsMax =  -2.22551144180017E-13  4.50769872718424E-01
 cg2d: Sum(rhs),rhsMax =  -4.26741975090295E-15  4.50538488152398E-01
 cg2d: Sum(rhs),rhsMax =   5.67948466034807E-14  4.50290698006480E-01
 cg2d: Sum(rhs),rhsMax =  -7.62931384734600E-14  4.50027073610876E-01
 cg2d: Sum(rhs),rhsMax =  -1.03993202937858E-13  4.49748318548458E-01
 cg2d: Sum(rhs),rhsMax =  -1.36564370922798E-13  4.49456285433952E-01
 cg2d: Sum(rhs),rhsMax =  -4.13176437508156E-14  4.49151209715123E-01
 cg2d: Sum(rhs),rhsMax =   4.86589935011494E-14  4.48833916209291E-01
 cg2d: Sum(rhs),rhsMax =   1.54737334057131E-13  4.48505618503109E-01
 cg2d: Sum(rhs),rhsMax =  -3.82957554556640E-14  4.48167543196505E-01
 cg2d: Sum(rhs),rhsMax =  -5.03416752728469E-14  4.47821034885516E-01
 cg2d: Sum(rhs),rhsMax =   9.21138165743685E-15  4.47467291484784E-01
 cg2d: Sum(rhs),rhsMax =   5.36723443467224E-15  4.47107618749314E-01
 cg2d: Sum(rhs),rhsMax =   3.43093609078693E-14  4.46743161402015E-01
 cg2d: Sum(rhs),rhsMax =   7.46624984060418E-14  4.46375213516788E-01
 cg2d: Sum(rhs),rhsMax =   8.92237672633911E-14  4.46004925510951E-01
 cg2d: Sum(rhs),rhsMax =   1.22627602516800E-13  4.45633698607642E-01
 cg2d: Sum(rhs),rhsMax =  -1.03493602576776E-13  4.45262370067440E-01
 cg2d: Sum(rhs),rhsMax =  -4.21503110192845E-14  4.44891497168625E-01
 cg2d: Sum(rhs),rhsMax =   1.92901250528621E-15  4.44521875425186E-01
 cg2d: Sum(rhs),rhsMax =  -5.64444324613333E-14  4.44154394637814E-01
 cg2d: Sum(rhs),rhsMax =  -1.20035925643691E-13  4.43791068175662E-01
 cg2d: Sum(rhs),rhsMax =  -7.14220349529171E-14  4.43432881154978E-01
 cg2d: Sum(rhs),rhsMax =  -5.70099523145018E-14  4.43080208522778E-01
 cg2d: Sum(rhs),rhsMax =  -1.41456291125053E-13  4.42733265281295E-01
 cg2d: Sum(rhs),rhsMax =  -1.01793573570319E-13  4.42391451742563E-01
 cg2d: Sum(rhs),rhsMax =  -3.17419701634236E-14  4.42053751104242E-01
 cg2d: Sum(rhs),rhsMax =   1.68892677621102E-14  4.41729742285786E-01
 cg2d: Sum(rhs),rhsMax =  -8.40577607519322E-14  4.41411226122575E-01
 cg2d: Sum(rhs),rhsMax =   6.97358837342676E-15  4.41097971764862E-01
 cg2d: Sum(rhs),rhsMax =   1.41515271723236E-13  4.40790103635986E-01
 cg2d: Sum(rhs),rhsMax =  -2.49383846906426E-14  4.40487068604166E-01
 cg2d: Sum(rhs),rhsMax =  -1.01911534766685E-13  4.40188980304063E-01
 cg2d: Sum(rhs),rhsMax =  -8.98690843964545E-14  4.39895911018304E-01
 cg2d: Sum(rhs),rhsMax =   4.82149042912994E-14  4.39607960901472E-01
 cg2d: Sum(rhs),rhsMax =  -3.50483531086354E-14  4.39489976935933E-01
 cg2d: Sum(rhs),rhsMax =  -6.88303580798078E-14  4.39429064886479E-01
 cg2d: Sum(rhs),rhsMax =   4.87977713792276E-14  4.39363305536549E-01
 cg2d: Sum(rhs),rhsMax =  -8.42832748038091E-14  4.39293644948808E-01
 cg2d: Sum(rhs),rhsMax =  -7.31324723002302E-14  4.39221069002035E-01
 cg2d: Sum(rhs),rhsMax =   7.34169669502904E-14  4.39146536964955E-01
 cg2d: Sum(rhs),rhsMax =  -2.28289609438548E-13  4.39071058311489E-01
 cg2d: Sum(rhs),rhsMax =   6.90489332377808E-14  4.38995659967828E-01
 cg2d: Sum(rhs),rhsMax =  -3.40109884700013E-14  4.38921223707628E-01
 cg2d: Sum(rhs),rhsMax =   7.09085568040280E-14  4.38848610185402E-01
 cg2d: Sum(rhs),rhsMax =   2.32140695555216E-14  4.38778660553398E-01
 cg2d: Sum(rhs),rhsMax =   2.88866153219658E-14  4.38712945745540E-01
 cg2d: Sum(rhs),rhsMax =  -6.11108386117110E-14  4.38651374713469E-01
 cg2d: Sum(rhs),rhsMax =  -6.32098540176429E-14  4.38594161756444E-01
 cg2d: Sum(rhs),rhsMax =   1.20146947946154E-14  4.38541688653904E-01
 cg2d: Sum(rhs),rhsMax =  -5.68295410730002E-14  4.38494183093099E-01
 cg2d: Sum(rhs),rhsMax =  -1.89084858881472E-14  4.38451697743980E-01
 cg2d: Sum(rhs),rhsMax =  -1.27443194886112E-13  4.38414106581348E-01
 cg2d: Sum(rhs),rhsMax =  -1.22086368792296E-13  4.38381208344601E-01
 cg2d: Sum(rhs),rhsMax =  -6.21239171216814E-14  4.38352578153553E-01
 cg2d: Sum(rhs),rhsMax =  -3.25225957276132E-14  4.38328038626962E-01
 cg2d: Sum(rhs),rhsMax =   1.04929953614885E-13  4.38307093776424E-01
 cg2d: Sum(rhs),rhsMax =  -8.07721944884321E-14  4.38288819256099E-01
 cg2d: Sum(rhs),rhsMax =   5.81132364452230E-14  4.38272155984601E-01
 cg2d: Sum(rhs),rhsMax =   3.86149445752437E-15  4.38255879731117E-01
 cg2d: Sum(rhs),rhsMax =  -2.78180256607641E-14  4.38238670113453E-01
 cg2d: Sum(rhs),rhsMax =  -1.55899598786036E-13  4.38219136989635E-01
 cg2d: Sum(rhs),rhsMax =  -1.24372734333633E-13  4.38195832832688E-01
 cg2d: Sum(rhs),rhsMax =  -1.05231795499705E-13  4.38167258947366E-01
 cg2d: Sum(rhs),rhsMax =  -1.44884104713583E-14  4.38131812248011E-01
 cg2d: Sum(rhs),rhsMax =  -2.23467078175332E-14  4.38087893073766E-01
 cg2d: Sum(rhs),rhsMax =  -1.52620971416439E-14  4.38034009973634E-01
 cg2d: Sum(rhs),rhsMax =  -1.35794153699464E-13  4.37968895807107E-01
 cg2d: Sum(rhs),rhsMax =  -6.81676937119846E-14  4.37891500579985E-01
 cg2d: Sum(rhs),rhsMax =   7.83609288568243E-14  4.37801387349850E-01
 cg2d: Sum(rhs),rhsMax =  -1.77309555926541E-13  4.37697254939031E-01
 cg2d: Sum(rhs),rhsMax =  -7.89437959447525E-14  4.37579278332464E-01
 cg2d: Sum(rhs),rhsMax =   2.98580604685128E-14  4.37446132648861E-01
 cg2d: Sum(rhs),rhsMax =   9.01362318117549E-15  4.37297498440962E-01
 cg2d: Sum(rhs),rhsMax =   8.22050760795889E-14  4.37130981246587E-01
 cg2d: Sum(rhs),rhsMax =   3.75949271713694E-14  4.36946919086535E-01
 cg2d: Sum(rhs),rhsMax =  -2.29330443524134E-15  4.36745845574651E-01
 cg2d: Sum(rhs),rhsMax =   2.80400702656891E-14  4.36527868685570E-01
 cg2d: Sum(rhs),rhsMax =   6.28316842998800E-14  4.36292558528304E-01
 cg2d: Sum(rhs),rhsMax =  -2.91294766086025E-14  4.36041295710213E-01
 cg2d: Sum(rhs),rhsMax =  -3.93088339656344E-15  4.35774766564218E-01
 cg2d: Sum(rhs),rhsMax =   4.50472992241657E-14  4.35493955576375E-01
 cg2d: Sum(rhs),rhsMax =   2.13509765423225E-14  4.35200017941946E-01
 cg2d: Sum(rhs),rhsMax =  -8.45920555825330E-14  4.34894295319429E-01
 cg2d: Sum(rhs),rhsMax =  -1.19130399989231E-13  4.34578264307631E-01
 cg2d: Sum(rhs),rhsMax =  -9.85982129275698E-14  4.34253505571472E-01
 cg2d: Sum(rhs),rhsMax =  -4.35866620573933E-14  4.33921530094315E-01
 cg2d: Sum(rhs),rhsMax =   6.84174938925253E-14  4.33583683244910E-01
 cg2d: Sum(rhs),rhsMax =  -1.66429370285215E-13  4.33241612591807E-01
 cg2d: Sum(rhs),rhsMax =   2.01921812603700E-15  4.32903048509509E-01
 cg2d: Sum(rhs),rhsMax =  -6.46357967148958E-14  4.32563428451063E-01
 cg2d: Sum(rhs),rhsMax =  -3.69912434017294E-14  4.32224019538021E-01
 cg2d: Sum(rhs),rhsMax =   1.25802146477838E-13  4.31886330828708E-01
 cg2d: Sum(rhs),rhsMax =   8.82904860333156E-14  4.31553060582814E-01
 cg2d: Sum(rhs),rhsMax =   4.47558656802016E-14  4.31224836090859E-01
 cg2d: Sum(rhs),rhsMax =   4.12378464709207E-14  4.30902842190759E-01
 cg2d: Sum(rhs),rhsMax =  -1.84709886275058E-13  4.30587943616620E-01
 cg2d: Sum(rhs),rhsMax =  -1.39506461938055E-14  4.30280784419451E-01
 cg2d: Sum(rhs),rhsMax =   1.99250338450696E-14  4.29981759115843E-01
 cg2d: Sum(rhs),rhsMax =   9.71445146547012E-17  4.29690883452062E-01
 cg2d: Sum(rhs),rhsMax =  -3.95204702297036E-14  4.29408101522874E-01
 cg2d: Sum(rhs),rhsMax =  -1.16687909335056E-13  4.29132623150885E-01
 cg2d: Sum(rhs),rhsMax =  -6.93785306982164E-14  4.28864594378134E-01
 cg2d: Sum(rhs),rhsMax =  -1.42802436542411E-14  4.28603853299664E-01
 cg2d: Sum(rhs),rhsMax =  -5.85607951020251E-14  4.28349953081729E-01
 cg2d: Sum(rhs),rhsMax =   1.50088275141513E-14  4.28102562519360E-01
 cg2d: Sum(rhs),rhsMax =   4.66779392915839E-14  4.27860121498092E-01
 cg2d: Sum(rhs),rhsMax =  -4.31842062109666E-14  4.27621837082413E-01
 cg2d: Sum(rhs),rhsMax =  -9.67802227247461E-14  4.27386856843632E-01
 cg2d: Sum(rhs),rhsMax =  -9.46291656145348E-14  4.27154328103747E-01
 cg2d: Sum(rhs),rhsMax =  -1.34905975279764E-13  4.26923347346992E-01
 cg2d: Sum(rhs),rhsMax =  -1.41379963292110E-14  4.26693029380877E-01
(PID.TID 0000.0001) // =======================================================
(PID.TID 0000.0001) // Begin MONITOR dynamic field statistics
(PID.TID 0000.0001) // =======================================================
(PID.TID 0000.0001) %MON time_tsnumber                =                  2160
(PID.TID 0000.0001) %MON time_secondsf                =   2.5920000000000E+06
(PID.TID 0000.0001) %MON dynstat_eta_max              =   9.7088401822465E-02
(PID.TID 0000.0001) %MON dynstat_eta_min              =  -1.4328236703773E-01
(PID.TID 0000.0001) %MON dynstat_eta_mean             =  -3.2342231628643E-18
(PID.TID 0000.0001) %MON dynstat_eta_sd               =   4.7182881543293E-02
(PID.TID 0000.0001) %MON dynstat_eta_del2             =   3.6300401409237E-04
(PID.TID 0000.0001) %MON dynstat_uvel_max             =   4.0997662615332E-01
(PID.TID 0000.0001) %MON dynstat_uvel_min             =  -4.1767108331198E-01
(PID.TID 0000.0001) %MON dynstat_uvel_mean            =  -5.9091682765083E-05
(PID.TID 0000.0001) %MON dynstat_uvel_sd              =   1.0239124457340E-02
(PID.TID 0000.0001) %MON dynstat_uvel_del2            =   3.2030118022994E-04
(PID.TID 0000.0001) %MON dynstat_vvel_max             =   3.6758013239016E-01
(PID.TID 0000.0001) %MON dynstat_vvel_min             =  -2.7503746920048E-01
(PID.TID 0000.0001) %MON dynstat_vvel_mean            =  -3.8810668704981E-06
(PID.TID 0000.0001) %MON dynstat_vvel_sd              =   1.2360219225469E-02
(PID.TID 0000.0001) %MON dynstat_vvel_del2            =   2.0576061190686E-04
(PID.TID 0000.0001) %MON dynstat_wvel_max             =   1.7956592301245E-04
(PID.TID 0000.0001) %MON dynstat_wvel_min             =  -2.2611378771582E-04
(PID.TID 0000.0001) %MON dynstat_wvel_mean            =   2.6214276479937E-22
(PID.TID 0000.0001) %MON dynstat_wvel_sd              =   1.1860880950788E-05
(PID.TID 0000.0001) %MON dynstat_wvel_del2            =   2.0054075238039E-07
(PID.TID 0000.0001) %MON dynstat_theta_max            =   2.5967537357754E+01
(PID.TID 0000.0001) %MON dynstat_theta_min            =   9.9681806886237E-01
(PID.TID 0000.0001) %MON dynstat_theta_mean           =   4.0653357331999E+00
(PID.TID 0000.0001) %MON dynstat_theta_sd             =   4.6169230725443E+00
(PID.TID 0000.0001) %MON dynstat_theta_del2           =   3.1841887511517E-03
(PID.TID 0000.0001) %MON dynstat_salt_max             =   3.4500000000002E+01
(PID.TID 0000.0001) %MON dynstat_salt_min             =   3.4499999999996E+01
(PID.TID 0000.0001) %MON dynstat_salt_mean            =   3.4500000000000E+01
(PID.TID 0000.0001) %MON dynstat_salt_sd              =   3.6068394819995E-13
(PID.TID 0000.0001) %MON dynstat_salt_del2            =   3.6060071861435E-15
(PID.TID 0000.0001) %MON trAdv_CFL_u_max              =   1.6558852266380E-02
(PID.TID 0000.0001) %MON trAdv_CFL_v_max              =   3.9577932991197E-03
(PID.TID 0000.0001) %MON trAdv_CFL_w_max              =   1.7507808027934E-02
(PID.TID 0000.0001) %MON advcfl_uvel_max              =   1.6558642095728E-02
(PID.TID 0000.0001) %MON advcfl_vvel_max              =   3.9674958026028E-03
(PID.TID 0000.0001) %MON advcfl_wvel_max              =   1.6420816635472E-02
(PID.TID 0000.0001) %MON advcfl_W_hf_max              =   1.7507808027934E-02
(PID.TID 0000.0001) %MON pe_b_mean                    =   3.5176660610063E-06
(PID.TID 0000.0001) %MON ke_max                       =   1.0046023480460E-01
(PID.TID 0000.0001) %MON ke_mean                      =   1.2603685764611E-04
(PID.TID 0000.0001) %MON ke_vol                       =   7.5744557036543E+16
(PID.TID 0000.0001) %MON vort_r_min                   =  -8.4337704832500E-06
(PID.TID 0000.0001) %MON vort_r_max                   =   8.3785009448505E-06
(PID.TID 0000.0001) %MON vort_a_mean                  =   9.3555569952477E-05
(PID.TID 0000.0001) %MON vort_a_sd                    =   2.5194794607319E-05
(PID.TID 0000.0001) %MON vort_p_mean                  =   9.7478626213492E-05
(PID.TID 0000.0001) %MON vort_p_sd                    =   3.9513513649536E-05
(PID.TID 0000.0001) %MON surfExpan_theta_mean         =   1.6761896036734E-08
(PID.TID 0000.0001) %MON surfExpan_salt_mean          =   4.7956107680967E-21
(PID.TID 0000.0001) // =======================================================
(PID.TID 0000.0001) // End MONITOR dynamic field statistics
(PID.TID 0000.0001) // =======================================================
(PID.TID 0000.0001) %CHECKPOINT      2160 ckptA
 cg2d: Sum(rhs),rhsMax =   4.41799374861773E-14  4.26462507416096E-01
 cg2d: Sum(rhs),rhsMax =  -1.08541647891869E-13  4.26231092486072E-01
 cg2d: Sum(rhs),rhsMax =   2.98441826807050E-14  4.25998200884118E-01
 cg2d: Sum(rhs),rhsMax =  -4.09568212678124E-14  4.25763333150578E-01
 cg2d: Sum(rhs),rhsMax =   1.15393805621977E-14  4.25525905118659E-01
 cg2d: Sum(rhs),rhsMax =   1.06137321154165E-13  4.25284907194070E-01
 cg2d: Sum(rhs),rhsMax =  -2.09970929532233E-14  4.25040282607113E-01
 cg2d: Sum(rhs),rhsMax =  -1.64940977542827E-13  4.24791995305689E-01
 cg2d: Sum(rhs),rhsMax =   2.50702236748168E-14  4.24540171358801E-01
 cg2d: Sum(rhs),rhsMax =  -2.06293315763162E-14  4.24288598949793E-01
 cg2d: Sum(rhs),rhsMax =  -6.42819131257966E-14  4.24034676443003E-01
 cg2d: Sum(rhs),rhsMax =   3.37646577364126E-14  4.23778176266617E-01
 cg2d: Sum(rhs),rhsMax =   6.19088114106603E-14  4.23519399441782E-01
 cg2d: Sum(rhs),rhsMax =  -1.13763165554559E-13  4.23258502630681E-01
 cg2d: Sum(rhs),rhsMax =   3.94961841010399E-14  4.22996604417990E-01
 cg2d: Sum(rhs),rhsMax =  -5.30894772587942E-14  4.22733611862857E-01
 cg2d: Sum(rhs),rhsMax =   5.55736012763930E-14  4.22470175550048E-01
 cg2d: Sum(rhs),rhsMax =   1.63480340376054E-14  4.22206933340636E-01
 cg2d: Sum(rhs),rhsMax =   6.04308270091281E-14  4.21944310870109E-01
 cg2d: Sum(rhs),rhsMax =  -7.02146674136372E-14  4.21682835458640E-01
 cg2d: Sum(rhs),rhsMax =  -7.26502191739087E-14  4.21423026020596E-01
 cg2d: Sum(rhs),rhsMax =  -5.07788255887931E-14  4.21165429054555E-01
 cg2d: Sum(rhs),rhsMax =   2.54796184151473E-14  4.20910370948511E-01
 cg2d: Sum(rhs),rhsMax =  -3.57144869234105E-14  4.20658452900441E-01
 cg2d: Sum(rhs),rhsMax =  -1.44759204623313E-13  4.20409996742052E-01
 cg2d: Sum(rhs),rhsMax =   1.45883305435746E-13  4.20165094950208E-01
 cg2d: Sum(rhs),rhsMax =  -8.17540479758350E-14  4.19923986427527E-01
 cg2d: Sum(rhs),rhsMax =   7.64666108210577E-15  4.19685691674859E-01
 cg2d: Sum(rhs),rhsMax =  -1.71536396198491E-13  4.19450667266257E-01
 cg2d: Sum(rhs),rhsMax =  -3.63944985259934E-14  4.19218185614621E-01
 cg2d: Sum(rhs),rhsMax =  -1.76983427913058E-13  4.18988093318690E-01
 cg2d: Sum(rhs),rhsMax =  -1.69447789133415E-13  4.18759986164855E-01
 cg2d: Sum(rhs),rhsMax =  -1.88807303125316E-14  4.18533347269100E-01
 cg2d: Sum(rhs),rhsMax =  -2.06223926824123E-14  4.18307550187263E-01
 cg2d: Sum(rhs),rhsMax =   3.70189989773451E-14  4.18082059497103E-01
 cg2d: Sum(rhs),rhsMax =  -1.05075670386867E-13  4.17855989759927E-01
 cg2d: Sum(rhs),rhsMax =  -5.50115508701765E-14  4.17628527532728E-01
 cg2d: Sum(rhs),rhsMax =   1.89778748271863E-14  4.17398989202728E-01
 cg2d: Sum(rhs),rhsMax =   4.52554660412829E-14  4.17166728527232E-01
 cg2d: Sum(rhs),rhsMax =   2.16354711923827E-14  4.16931024475052E-01
 cg2d: Sum(rhs),rhsMax =  -1.52933221642115E-14  4.16690830941391E-01
 cg2d: Sum(rhs),rhsMax =  -6.85770884523151E-14  4.16445242063931E-01
 cg2d: Sum(rhs),rhsMax =   5.92234594698482E-14  4.16193513158622E-01
 cg2d: Sum(rhs),rhsMax =   1.04666275646537E-13  4.15935075273615E-01
 cg2d: Sum(rhs),rhsMax =  -7.37812588802456E-14  4.15669577343074E-01
 cg2d: Sum(rhs),rhsMax =  -1.83998649649908E-13  4.15396553976778E-01
 cg2d: Sum(rhs),rhsMax =  -2.18131068763228E-13  4.15116640258037E-01
 cg2d: Sum(rhs),rhsMax =   1.06026298851702E-13  4.14830077947262E-01
 cg2d: Sum(rhs),rhsMax =  -1.10564335464858E-13  4.14536958073188E-01
 cg2d: Sum(rhs),rhsMax =   5.89250870319802E-14  4.14237418965262E-01
 cg2d: Sum(rhs),rhsMax =  -8.82627304576999E-14  4.13931585023238E-01
 cg2d: Sum(rhs),rhsMax =   4.48946435582798E-14  4.13619726263235E-01
 cg2d: Sum(rhs),rhsMax =  -2.13176698515838E-13  4.13302958093227E-01
 cg2d: Sum(rhs),rhsMax =  -1.59268431776383E-13  4.12981152724414E-01
 cg2d: Sum(rhs),rhsMax =  -5.08829089973517E-14  4.12654949061239E-01
 cg2d: Sum(rhs),rhsMax =   5.34294830600857E-15  4.12324249237728E-01
 cg2d: Sum(rhs),rhsMax =  -1.12319875622546E-13  4.11989269168184E-01
 cg2d: Sum(rhs),rhsMax =  -7.80903119945719E-14  4.11650498885100E-01
 cg2d: Sum(rhs),rhsMax =  -4.47628045741055E-14  4.11309017351248E-01
 cg2d: Sum(rhs),rhsMax =  -2.35783614854768E-14  4.10965601040223E-01
 cg2d: Sum(rhs),rhsMax =  -5.55111512312578E-15  4.10620900064830E-01
 cg2d: Sum(rhs),rhsMax =  -7.59878271416881E-14  4.10275544452391E-01
 cg2d: Sum(rhs),rhsMax =   5.94038707113498E-14  4.09930123363256E-01
 cg2d: Sum(rhs),rhsMax =   7.56408824464927E-14  4.09585510430503E-01
 cg2d: Sum(rhs),rhsMax =   1.00947028514042E-13  4.09243023350527E-01
 cg2d: Sum(rhs),rhsMax =   1.02751140929058E-13  4.08902545836606E-01
 cg2d: Sum(rhs),rhsMax =  -3.21409565628983E-14  4.08564424214501E-01
 cg2d: Sum(rhs),rhsMax =  -5.55458457007774E-14  4.08228961416042E-01
 cg2d: Sum(rhs),rhsMax =  -1.56853696697823E-13  4.07896335190937E-01
 cg2d: Sum(rhs),rhsMax =  -1.23026588916275E-14  4.07566720191440E-01
 cg2d: Sum(rhs),rhsMax =  -9.05039931886620E-14  4.07238925224277E-01
 cg2d: Sum(rhs),rhsMax =  -1.21860854740419E-13  4.06912207580000E-01
 cg2d: Sum(rhs),rhsMax =   9.18778941816356E-14  4.06586905468464E-01
 cg2d: Sum(rhs),rhsMax =  -2.22738494315422E-14  4.06263276517512E-01
 cg2d: Sum(rhs),rhsMax =   1.20674303882851E-13  4.05941532171546E-01
 cg2d: Sum(rhs),rhsMax =  -1.26322563520631E-13  4.05621931050719E-01
 cg2d: Sum(rhs),rhsMax =  -2.20518048266172E-14  4.05304682523468E-01
 cg2d: Sum(rhs),rhsMax =   1.39860345527154E-13  4.04989695675780E-01
 cg2d: Sum(rhs),rhsMax =  -1.71862524211974E-13  4.04675696601040E-01
 cg2d: Sum(rhs),rhsMax =  -1.60225999135122E-13  4.04360963003260E-01
 cg2d: Sum(rhs),rhsMax =   6.52949916357670E-14  4.04045111542753E-01
 cg2d: Sum(rhs),rhsMax =   1.50518486563556E-13  4.03727401590844E-01
 cg2d: Sum(rhs),rhsMax =  -1.40477907084602E-13  4.03407520319508E-01
 cg2d: Sum(rhs),rhsMax =  -5.88348814112294E-14  4.03085094984306E-01
 cg2d: Sum(rhs),rhsMax =   7.16718351334578E-14  4.02759313789622E-01
 cg2d: Sum(rhs),rhsMax =   9.83310655122693E-14  4.02429535355841E-01
 cg2d: Sum(rhs),rhsMax =  -1.95218841092526E-13  4.02095523315351E-01
 cg2d: Sum(rhs),rhsMax =  -8.90398865749376E-14  4.01757140175048E-01
 cg2d: Sum(rhs),rhsMax =   2.86166923491038E-13  4.01416249690793E-01
 cg2d: Sum(rhs),rhsMax =  -4.69069227904129E-14  4.01072816499716E-01
 cg2d: Sum(rhs),rhsMax =   6.28594398754956E-14  4.00727545549348E-01
 cg2d: Sum(rhs),rhsMax =  -2.22738494315422E-14  4.00379611498806E-01
 cg2d: Sum(rhs),rhsMax =  -3.05797054345192E-14  4.00029049911362E-01
 cg2d: Sum(rhs),rhsMax =   5.53654344592758E-14  3.99675460767655E-01
 cg2d: Sum(rhs),rhsMax =  -1.20209397991289E-13  3.99319786804053E-01
 cg2d: Sum(rhs),rhsMax =  -4.90441021128163E-14  3.98961407811062E-01
 cg2d: Sum(rhs),rhsMax =   1.04555253344074E-13  3.98600658856657E-01
 cg2d: Sum(rhs),rhsMax =  -2.93445823196237E-14  3.98237560322463E-01
 cg2d: Sum(rhs),rhsMax =   5.46784839627890E-15  3.97872247259818E-01
 cg2d: Sum(rhs),rhsMax =   1.48672740785116E-13  3.97505085972857E-01
 cg2d: Sum(rhs),rhsMax =  -2.00048311249645E-13  3.97136843812882E-01
 cg2d: Sum(rhs),rhsMax =   1.15005227563358E-13  3.96768101925429E-01
 cg2d: Sum(rhs),rhsMax =  -2.20892748536983E-13  3.96402238325513E-01
 cg2d: Sum(rhs),rhsMax =  -3.66651153882458E-14  3.96040065414457E-01
 cg2d: Sum(rhs),rhsMax =  -3.45765083231697E-14  3.95681677281666E-01
 cg2d: Sum(rhs),rhsMax =  -8.53483950180589E-15  3.95340491111906E-01
 cg2d: Sum(rhs),rhsMax =   8.41479663726830E-14  3.95005118139382E-01
 cg2d: Sum(rhs),rhsMax =   1.83880688453542E-15  3.94675098326477E-01
 cg2d: Sum(rhs),rhsMax =   4.00235400377369E-14  3.94476982968002E-01
 cg2d: Sum(rhs),rhsMax =   2.06154537885084E-14  3.94780101706545E-01
 cg2d: Sum(rhs),rhsMax =  -1.35148836566401E-13  3.95086836529695E-01
 cg2d: Sum(rhs),rhsMax =   2.02060590481778E-14  3.95397123798020E-01
 cg2d: Sum(rhs),rhsMax =  -2.26416108084493E-14  3.95710591280662E-01
 cg2d: Sum(rhs),rhsMax =   9.31754673416663E-14  3.96026569721870E-01
 cg2d: Sum(rhs),rhsMax =   1.08524300657109E-13  3.96343929252102E-01
 cg2d: Sum(rhs),rhsMax =   1.64535052249448E-13  3.96661395015095E-01
 cg2d: Sum(rhs),rhsMax =   1.29250776748080E-13  3.96977393592855E-01
 cg2d: Sum(rhs),rhsMax =  -1.14484810520565E-13  3.97290603462826E-01
 cg2d: Sum(rhs),rhsMax =  -1.73888681231915E-14  3.97597915743094E-01
 cg2d: Sum(rhs),rhsMax =   9.34391453100147E-14  3.97898267854031E-01
 cg2d: Sum(rhs),rhsMax =   6.01046989956444E-14  3.98189338044522E-01
 cg2d: Sum(rhs),rhsMax =   1.09148801108461E-13  3.98469168726300E-01
 cg2d: Sum(rhs),rhsMax =  -4.99600361081320E-15  3.98736192163737E-01
 cg2d: Sum(rhs),rhsMax =   8.68471961013029E-14  3.98988685814513E-01
 cg2d: Sum(rhs),rhsMax =  -1.37244382525381E-13  3.99225120020589E-01
 cg2d: Sum(rhs),rhsMax =  -2.30579444426837E-14  3.99444137943925E-01
 cg2d: Sum(rhs),rhsMax =   1.10453313162395E-13  3.99644680802422E-01
 cg2d: Sum(rhs),rhsMax =  -7.76392838908180E-14  3.99826046286959E-01
 cg2d: Sum(rhs),rhsMax =  -5.69058689059432E-14  3.99987875667055E-01
 cg2d: Sum(rhs),rhsMax =  -7.07281455625264E-14  4.00130183197515E-01
 cg2d: Sum(rhs),rhsMax =  -6.65995036897016E-14  4.00253355043715E-01
 cg2d: Sum(rhs),rhsMax =  -7.02909952465802E-14  4.00357508978872E-01
 cg2d: Sum(rhs),rhsMax =  -9.96147608844922E-14  4.00442820784860E-01
 cg2d: Sum(rhs),rhsMax =  -1.02209907204553E-14  4.00510682736058E-01
 cg2d: Sum(rhs),rhsMax =  -4.73857064697825E-14  4.00563219760918E-01
 cg2d: Sum(rhs),rhsMax =  -1.40519540448025E-13  4.00602464723141E-01
 cg2d: Sum(rhs),rhsMax =  -6.70227762178399E-14  4.00631068956015E-01
 cg2d: Sum(rhs),rhsMax =  -1.31977762052315E-14  4.00652071249894E-01
 cg2d: Sum(rhs),rhsMax =   3.64916430406481E-14  4.00669049069241E-01
 cg2d: Sum(rhs),rhsMax =   7.06656955173912E-14  4.00685610456622E-01
 cg2d: Sum(rhs),rhsMax =  -2.16396345287251E-13  4.00705625118412E-01
 cg2d: Sum(rhs),rhsMax =   9.16142162132871E-14  4.00732201272666E-01
 cg2d: Sum(rhs),rhsMax =  -1.42039158212981E-14  4.00768372336831E-01
 cg2d: Sum(rhs),rhsMax =   2.46629106026575E-13  4.00816987674909E-01
 cg2d: Sum(rhs),rhsMax =  -6.43929354282591E-14  4.00943081226742E-01
 cg2d: Sum(rhs),rhsMax =  -2.41265341038854E-14  4.01101644945232E-01
 cg2d: Sum(rhs),rhsMax =  -3.69981822956333E-14  4.01278938133541E-01
 cg2d: Sum(rhs),rhsMax =   2.08513761812412E-14  4.01474978418377E-01
 cg2d: Sum(rhs),rhsMax =  -9.79286096658427E-14  4.01690515993961E-01
 cg2d: Sum(rhs),rhsMax =  -1.37730105098655E-13  4.01924295631037E-01
 cg2d: Sum(rhs),rhsMax =   8.19136425356248E-14  4.02175417621651E-01
 cg2d: Sum(rhs),rhsMax =   8.85957973650875E-14  4.02442509864945E-01
 cg2d: Sum(rhs),rhsMax =   5.05845365594837E-15  4.02723941003628E-01
 cg2d: Sum(rhs),rhsMax =   1.30936927966729E-14  4.03017802471017E-01
 cg2d: Sum(rhs),rhsMax =  -6.41778297172380E-14  4.03322232901106E-01
 cg2d: Sum(rhs),rhsMax =   1.03882180635395E-13  4.03633479451151E-01
 cg2d: Sum(rhs),rhsMax =  -1.39249722863610E-13  4.03950318720045E-01
 cg2d: Sum(rhs),rhsMax =  -1.37695410629135E-13  4.04269681412667E-01
 cg2d: Sum(rhs),rhsMax =  -1.09703912620773E-13  4.04588980713895E-01
 cg2d: Sum(rhs),rhsMax =  -7.48567874353512E-14  4.04905556929379E-01
 cg2d: Sum(rhs),rhsMax =  -9.66657309753316E-14  4.05216567517859E-01
 cg2d: Sum(rhs),rhsMax =   1.75082170983387E-13  4.05521169305631E-01
 cg2d: Sum(rhs),rhsMax =   1.18925702619066E-13  4.05816654594041E-01
 cg2d: Sum(rhs),rhsMax =  -2.22814822148365E-13  4.06101525332121E-01
 cg2d: Sum(rhs),rhsMax =   1.19300402889877E-13  4.06377039381831E-01
 cg2d: Sum(rhs),rhsMax =   5.80299697183762E-14  4.06646268157373E-01
 cg2d: Sum(rhs),rhsMax =   4.65183447317941E-14  4.06902387962075E-01
 cg2d: Sum(rhs),rhsMax =  -4.69069227904129E-15  4.07144637774256E-01
 cg2d: Sum(rhs),rhsMax =   1.83089654548496E-13  4.07372165539200E-01
 cg2d: Sum(rhs),rhsMax =  -2.18026985354669E-13  4.07584616236518E-01
 cg2d: Sum(rhs),rhsMax =  -1.12930498286090E-13  4.07782289674567E-01
 cg2d: Sum(rhs),rhsMax =   1.93942084614207E-14  4.07965740865591E-01
 cg2d: Sum(rhs),rhsMax =   8.33638713615414E-14  4.08137122922135E-01
 cg2d: Sum(rhs),rhsMax =  -3.25781068788444E-14  4.08297342003662E-01
 cg2d: Sum(rhs),rhsMax =  -6.12912498532125E-14  4.08448555520545E-01
 cg2d: Sum(rhs),rhsMax =  -2.21558882351758E-13  4.08592880444599E-01
 cg2d: Sum(rhs),rhsMax =  -1.09426356864617E-13  4.08732828424646E-01
 cg2d: Sum(rhs),rhsMax =   1.34128819162527E-13  4.08842436210090E-01
 cg2d: Sum(rhs),rhsMax =  -3.31401572850609E-14  4.08938228285705E-01
 cg2d: Sum(rhs),rhsMax =  -5.09453590424869E-14  4.09038068280593E-01
 cg2d: Sum(rhs),rhsMax =  -2.04287975424933E-13  4.09145273267581E-01
 cg2d: Sum(rhs),rhsMax =   9.80812653317287E-14  4.09262803252231E-01
 cg2d: Sum(rhs),rhsMax =  -1.47694356744665E-13  4.09393444478926E-01
 cg2d: Sum(rhs),rhsMax =   3.93157728595384E-14  4.09539800732518E-01
 cg2d: Sum(rhs),rhsMax =  -1.16996690113780E-13  4.09704017993490E-01
 cg2d: Sum(rhs),rhsMax =  -7.52176099183544E-15  4.09887212877863E-01
 cg2d: Sum(rhs),rhsMax =  -2.15036322082085E-13  4.10090967441143E-01
 cg2d: Sum(rhs),rhsMax =  -7.62445662161326E-14  4.10316133719654E-01
 cg2d: Sum(rhs),rhsMax =  -6.93542445695527E-14  4.10560086000383E-01
 cg2d: Sum(rhs),rhsMax =   4.14807077575574E-14  4.10819743425150E-01
 cg2d: Sum(rhs),rhsMax =   1.33781874467331E-14  4.11094573264358E-01
 cg2d: Sum(rhs),rhsMax =   4.53040382986103E-14  4.11383420507408E-01
 cg2d: Sum(rhs),rhsMax =   3.53744811221191E-14  4.11684384754178E-01
 cg2d: Sum(rhs),rhsMax =  -1.30312427515378E-13  4.11995621695874E-01
 cg2d: Sum(rhs),rhsMax =   7.21644966006352E-14  4.12315014108172E-01
 cg2d: Sum(rhs),rhsMax =  -1.54896928616921E-13  4.12640212494209E-01
 cg2d: Sum(rhs),rhsMax =   6.84036161047175E-14  4.12968962869418E-01
 cg2d: Sum(rhs),rhsMax =  -6.81885103936963E-14  4.13298308527746E-01
 cg2d: Sum(rhs),rhsMax =  -2.52735332662013E-13  4.13625689111374E-01
 cg2d: Sum(rhs),rhsMax =  -1.48880907602233E-13  4.13948142762654E-01
 cg2d: Sum(rhs),rhsMax =  -1.05582209641852E-13  4.14262755118867E-01
 cg2d: Sum(rhs),rhsMax =   1.71390679426509E-15  4.14566556076484E-01
 cg2d: Sum(rhs),rhsMax =  -1.99493199737333E-14  4.14856965456862E-01
 cg2d: Sum(rhs),rhsMax =  -3.02119440576121E-14  4.15131319241659E-01
 cg2d: Sum(rhs),rhsMax =  -1.36418654150816E-13  4.15387077538581E-01
 cg2d: Sum(rhs),rhsMax =  -7.64110996698264E-14  4.15621666234549E-01
 cg2d: Sum(rhs),rhsMax =  -1.29382615732254E-13  4.15832595659202E-01
 cg2d: Sum(rhs),rhsMax =  -2.55920284963906E-13  4.16014144643081E-01
 cg2d: Sum(rhs),rhsMax =   2.33146835171283E-14  4.16163256692048E-01
 cg2d: Sum(rhs),rhsMax =  -3.11556336285435E-14  4.16279305426663E-01
 cg2d: Sum(rhs),rhsMax =   1.45598810785685E-13  4.16362453646021E-01
 cg2d: Sum(rhs),rhsMax =  -7.31359417471822E-15  4.16413259592726E-01
 cg2d: Sum(rhs),rhsMax =  -5.82867087928207E-16  4.16432696294150E-01
 cg2d: Sum(rhs),rhsMax =  -2.09630923730941E-13  4.16422211190686E-01
 cg2d: Sum(rhs),rhsMax =   1.98840943710366E-13  4.16383933163933E-01
 cg2d: Sum(rhs),rhsMax =   9.27313781318162E-14  4.16320737440111E-01
 cg2d: Sum(rhs),rhsMax =   4.32848201725733E-14  4.16235529814053E-01
 cg2d: Sum(rhs),rhsMax =  -7.95474797143925E-14  4.16131214463414E-01
 cg2d: Sum(rhs),rhsMax =  -3.35495520253914E-14  4.16011058428141E-01
 cg2d: Sum(rhs),rhsMax =  -1.79786741050236E-14  4.15878270248332E-01
 cg2d: Sum(rhs),rhsMax =  -6.97358837342676E-15  4.15735644634116E-01
 cg2d: Sum(rhs),rhsMax =   3.65749097674950E-14  4.15587002480813E-01
 cg2d: Sum(rhs),rhsMax =  -4.54775106462080E-14  4.15435923858272E-01
 cg2d: Sum(rhs),rhsMax =  -1.53037305050674E-13  4.15285864212440E-01
 cg2d: Sum(rhs),rhsMax =   8.92966256493821E-14  4.15140231263143E-01
 cg2d: Sum(rhs),rhsMax =  -8.91786644530157E-14  4.15002067468440E-01
 cg2d: Sum(rhs),rhsMax =   1.65915892136326E-13  4.14873932178586E-01
 cg2d: Sum(rhs),rhsMax =   7.60641549746310E-14  4.14757932540021E-01
 cg2d: Sum(rhs),rhsMax =   6.22765727875674E-14  4.14650933524981E-01
 cg2d: Sum(rhs),rhsMax =   3.82610609861445E-14  4.14552063692453E-01
 cg2d: Sum(rhs),rhsMax =  -2.48683018622131E-13  4.14461447496839E-01
 cg2d: Sum(rhs),rhsMax =  -6.90350554499730E-14  4.14379485083825E-01
 cg2d: Sum(rhs),rhsMax =  -6.86534162852581E-14  4.14307158023860E-01
 cg2d: Sum(rhs),rhsMax =   1.50955636879502E-13  4.14244345371911E-01
 cg2d: Sum(rhs),rhsMax =  -1.61259894326804E-13  4.14192606015409E-01
 cg2d: Sum(rhs),rhsMax =  -1.11646802913867E-13  4.14150229377034E-01
 cg2d: Sum(rhs),rhsMax =  -9.24121890122365E-14  4.14117597822501E-01
 cg2d: Sum(rhs),rhsMax =  -1.20313481399847E-13  4.14094074787047E-01
 cg2d: Sum(rhs),rhsMax =   1.64299129856715E-13  4.14078664925347E-01
 cg2d: Sum(rhs),rhsMax =  -2.42236786185401E-14  4.14069990324043E-01
 cg2d: Sum(rhs),rhsMax =  -5.85226311855536E-14  4.14066665305643E-01
 cg2d: Sum(rhs),rhsMax =  -1.43940415142652E-13  4.14067549562797E-01
 cg2d: Sum(rhs),rhsMax =  -2.29989638445005E-13  4.14071971625515E-01
 cg2d: Sum(rhs),rhsMax =   1.32151234399913E-13  4.14079352890772E-01
 cg2d: Sum(rhs),rhsMax =  -1.15810139256212E-13  4.14088366475926E-01
 cg2d: Sum(rhs),rhsMax =  -1.07955311356989E-13  4.14096414272631E-01
 cg2d: Sum(rhs),rhsMax =   4.54775106462080E-14  4.14127112660366E-01
 cg2d: Sum(rhs),rhsMax =  -1.23394350293182E-13  4.14175305393852E-01
 cg2d: Sum(rhs),rhsMax =   1.20251031354712E-14  4.14209177229381E-01
 cg2d: Sum(rhs),rhsMax =  -1.17947318578615E-13  4.14222685621933E-01
 cg2d: Sum(rhs),rhsMax =  -4.50472992241657E-14  4.14214784330022E-01
 cg2d: Sum(rhs),rhsMax =   8.94839757847876E-14  4.14184721534195E-01
 cg2d: Sum(rhs),rhsMax =  -1.03417274743833E-13  4.14133928208721E-01
 cg2d: Sum(rhs),rhsMax =  -2.28983498828939E-15  4.14065363116093E-01
 cg2d: Sum(rhs),rhsMax =  -1.15740750317173E-13  4.13987310071343E-01
 cg2d: Sum(rhs),rhsMax =  -1.86232973486966E-13  4.13901161705974E-01
 cg2d: Sum(rhs),rhsMax =  -8.72218963721139E-14  4.13807882287465E-01
 cg2d: Sum(rhs),rhsMax =  -1.24733556816636E-13  4.13709628353769E-01
 cg2d: Sum(rhs),rhsMax =   3.48054918219987E-14  4.13608469449590E-01
 cg2d: Sum(rhs),rhsMax =  -1.36689271013068E-13  4.13506840170749E-01
 cg2d: Sum(rhs),rhsMax =  -5.73777136914089E-14  4.13407118214364E-01
 cg2d: Sum(rhs),rhsMax =  -8.13654699172162E-14  4.13311561090540E-01
 cg2d: Sum(rhs),rhsMax =  -2.77555756156289E-15  4.13222724414363E-01
 cg2d: Sum(rhs),rhsMax =   1.35280675550575E-13  4.13142849967694E-01
 cg2d: Sum(rhs),rhsMax =  -1.72577230284077E-13  4.13074249894221E-01
 cg2d: Sum(rhs),rhsMax =  -1.72070691029091E-13  4.13019623918215E-01
 cg2d: Sum(rhs),rhsMax =   1.83186799063151E-15  4.12981440869323E-01
 cg2d: Sum(rhs),rhsMax =   1.00038033412631E-13  4.12960619976828E-01
 cg2d: Sum(rhs),rhsMax =  -1.12347631198162E-13  4.12957692960090E-01
 cg2d: Sum(rhs),rhsMax =  -4.21745971479481E-14  4.12970585151336E-01
 cg2d: Sum(rhs),rhsMax =  -1.28105859253935E-13  4.12992210486095E-01
 cg2d: Sum(rhs),rhsMax =   6.13398221105399E-15  4.13022664206678E-01
 cg2d: Sum(rhs),rhsMax =   4.44089209850063E-16  4.13063445170648E-01
 cg2d: Sum(rhs),rhsMax =   1.74166236988071E-13  4.13115146556181E-01
 cg2d: Sum(rhs),rhsMax =   1.13589693206961E-14  4.13177856007331E-01
 cg2d: Sum(rhs),rhsMax =  -1.75970349403087E-14  4.13251463566066E-01
 cg2d: Sum(rhs),rhsMax =  -2.97747937416659E-14  4.13335162027397E-01
 cg2d: Sum(rhs),rhsMax =   3.75185993384264E-14  4.13428118281495E-01
 cg2d: Sum(rhs),rhsMax =  -7.43433092864620E-14  4.13529840508721E-01
 cg2d: Sum(rhs),rhsMax =  -3.43475248243408E-15  4.13639754626196E-01
 cg2d: Sum(rhs),rhsMax =   6.18602391533329E-14  4.13757195449945E-01
 cg2d: Sum(rhs),rhsMax =   3.09821612809458E-14  4.13881894550139E-01
 cg2d: Sum(rhs),rhsMax =   2.52159404467989E-14  4.14013058129143E-01
 cg2d: Sum(rhs),rhsMax =  -2.17222073661816E-13  4.14149743429792E-01
 cg2d: Sum(rhs),rhsMax =   3.89133170131117E-14  4.14292293547632E-01
 cg2d: Sum(rhs),rhsMax =  -5.37347943918576E-14  4.14439600006752E-01
 cg2d: Sum(rhs),rhsMax =  -3.57353036051222E-15  4.14589399927906E-01
 cg2d: Sum(rhs),rhsMax =  -6.74529876398822E-14  4.14739206786918E-01
 cg2d: Sum(rhs),rhsMax =  -5.48935896738101E-14  4.14887891841260E-01
 cg2d: Sum(rhs),rhsMax =  -2.72143418911241E-14  4.15032806743117E-01
 cg2d: Sum(rhs),rhsMax =   8.24687540479374E-14  4.15166212799093E-01
 cg2d: Sum(rhs),rhsMax =  -1.65492619608187E-14  4.15286262700461E-01
 cg2d: Sum(rhs),rhsMax =   3.01286773307652E-14  4.15391706681694E-01
 cg2d: Sum(rhs),rhsMax =  -1.42857947693642E-13  4.15482699467254E-01
 cg2d: Sum(rhs),rhsMax =  -3.66928709638614E-14  4.15565698284379E-01
 cg2d: Sum(rhs),rhsMax =  -6.37406794012918E-14  4.15628624320393E-01
 cg2d: Sum(rhs),rhsMax =  -5.34988719991247E-15  4.15671136166396E-01
 cg2d: Sum(rhs),rhsMax =  -7.56339435525888E-16  4.15701284286926E-01
 cg2d: Sum(rhs),rhsMax =  -1.90472637662253E-14  4.15719545965814E-01
 cg2d: Sum(rhs),rhsMax =   1.55361834508483E-14  4.15725999671719E-01
 cg2d: Sum(rhs),rhsMax =  -1.63827285071250E-13  4.15720795820737E-01
 cg2d: Sum(rhs),rhsMax =   5.42968447980741E-14  4.15704537990331E-01
 cg2d: Sum(rhs),rhsMax =   7.01799729441177E-14  4.15677970785324E-01
 cg2d: Sum(rhs),rhsMax =   2.60902410786912E-14  4.15641833313658E-01
 cg2d: Sum(rhs),rhsMax =  -1.88536686263063E-13  4.15596825670422E-01
 cg2d: Sum(rhs),rhsMax =   2.14009365784307E-13  4.15543509081490E-01
 cg2d: Sum(rhs),rhsMax =  -7.71396835297367E-14  4.15482818845463E-01
 cg2d: Sum(rhs),rhsMax =   1.80647163894321E-13  4.15416838863363E-01
 cg2d: Sum(rhs),rhsMax =   5.78981307342019E-14  4.15346587715686E-01
 cg2d: Sum(rhs),rhsMax =  -1.38430933382949E-13  4.15272148375353E-01
 cg2d: Sum(rhs),rhsMax =   2.41320852190086E-13  4.15193380405905E-01
 cg2d: Sum(rhs),rhsMax =  -1.28903832052885E-13  4.15110243244000E-01
 cg2d: Sum(rhs),rhsMax =  -8.78394579295616E-14  4.15020105273996E-01
 cg2d: Sum(rhs),rhsMax =  -7.39130978644198E-14  4.14917821624502E-01
 cg2d: Sum(rhs),rhsMax =   6.70852262629751E-14  4.14804926996023E-01
 cg2d: Sum(rhs),rhsMax =  -3.59531848737049E-13  4.14683013780970E-01
 cg2d: Sum(rhs),rhsMax =  -1.61398672204882E-14  4.14553216918086E-01
 cg2d: Sum(rhs),rhsMax =   5.64409630143814E-14  4.14416740007684E-01
 cg2d: Sum(rhs),rhsMax =   8.95117313604032E-15  4.14274841348110E-01
 cg2d: Sum(rhs),rhsMax =  -1.79856129989275E-14  4.14128896410579E-01
 cg2d: Sum(rhs),rhsMax =   2.67910693629858E-14  4.13980351720121E-01
 cg2d: Sum(rhs),rhsMax =   3.91423005119407E-14  4.13830635584311E-01
 cg2d: Sum(rhs),rhsMax =  -2.24820162486594E-15  4.13681427662559E-01
 cg2d: Sum(rhs),rhsMax =  -2.92967039516867E-13  4.13534241001174E-01
 cg2d: Sum(rhs),rhsMax =   1.07469588783715E-13  4.13390494942004E-01
 cg2d: Sum(rhs),rhsMax =  -1.10869646796630E-13  4.13251531647539E-01
 cg2d: Sum(rhs),rhsMax =   4.36387037616726E-14  4.13117859273845E-01
 cg2d: Sum(rhs),rhsMax =   1.19800003250958E-13  4.12990939485295E-01
 cg2d: Sum(rhs),rhsMax =   3.84553500154539E-14  4.12871534341203E-01
 cg2d: Sum(rhs),rhsMax =   3.58046925441613E-14  4.12759875610573E-01
 cg2d: Sum(rhs),rhsMax =   8.89982532115141E-14  4.12651056820324E-01
 cg2d: Sum(rhs),rhsMax =   4.05994682317612E-14  4.12550329687710E-01
 cg2d: Sum(rhs),rhsMax =   7.07767178198537E-14  4.12457888032327E-01
 cg2d: Sum(rhs),rhsMax =  -1.03195230138908E-13  4.12368383409343E-01
 cg2d: Sum(rhs),rhsMax =  -1.92137972199191E-14  4.12281604891996E-01
 cg2d: Sum(rhs),rhsMax =   1.48978052116888E-13  4.12198506338389E-01
 cg2d: Sum(rhs),rhsMax =  -2.12503625807159E-13  4.12119227429153E-01
 cg2d: Sum(rhs),rhsMax =   1.00613961606655E-15  4.12043495505565E-01
 cg2d: Sum(rhs),rhsMax =  -1.49234791191333E-13  4.11970770847461E-01
 cg2d: Sum(rhs),rhsMax =  -8.54386006388097E-14  4.11901144635870E-01
 cg2d: Sum(rhs),rhsMax =  -1.17128529097954E-14  4.11833570448081E-01
 cg2d: Sum(rhs),rhsMax =  -1.15858711513539E-13  4.11767525123204E-01
 cg2d: Sum(rhs),rhsMax =  -2.03781436169947E-13  4.11702392298186E-01
 cg2d: Sum(rhs),rhsMax =   1.77635683940025E-15  4.11637505111353E-01
 cg2d: Sum(rhs),rhsMax =   2.18575157973078E-15  4.11572046990209E-01
 cg2d: Sum(rhs),rhsMax =  -1.54556922815630E-13  4.11505348298068E-01
 cg2d: Sum(rhs),rhsMax =   2.25305885059868E-14  4.11436707843474E-01
 cg2d: Sum(rhs),rhsMax =   2.80817036291126E-14  4.11365461882109E-01
 cg2d: Sum(rhs),rhsMax =   7.90409404594072E-14  4.11290971090274E-01
 cg2d: Sum(rhs),rhsMax =  -7.45167816340597E-14  4.11212391129318E-01
 cg2d: Sum(rhs),rhsMax =  -2.94278490464706E-14  4.11129739692451E-01
 cg2d: Sum(rhs),rhsMax =  -1.10404740905068E-13  4.11043147047257E-01
 cg2d: Sum(rhs),rhsMax =   1.92713900393215E-13  4.10952392840283E-01
 cg2d: Sum(rhs),rhsMax =   5.80438475061840E-14  4.10857825850637E-01
 cg2d: Sum(rhs),rhsMax =  -1.56097357262297E-13  4.10759817877203E-01
 cg2d: Sum(rhs),rhsMax =   3.77961550945827E-14  4.10658764980402E-01
 cg2d: Sum(rhs),rhsMax =   2.24126273096203E-14  4.10554524893413E-01
 cg2d: Sum(rhs),rhsMax =  -9.01570484934666E-14  4.10445554916761E-01
 cg2d: Sum(rhs),rhsMax =   8.50361447923831E-14  4.10331833753243E-01
 cg2d: Sum(rhs),rhsMax =  -1.07774900115487E-13  4.10215133958940E-01
 cg2d: Sum(rhs),rhsMax =  -1.38791755865952E-13  4.10097333053332E-01
 cg2d: Sum(rhs),rhsMax =  -4.40134040324835E-14  4.09980469462205E-01
 cg2d: Sum(rhs),rhsMax =   1.99167071723849E-13  4.09866744737617E-01
 cg2d: Sum(rhs),rhsMax =  -1.24053545214053E-13  4.09758311305544E-01
 cg2d: Sum(rhs),rhsMax =   1.62071744913561E-13  4.09657145013610E-01
 cg2d: Sum(rhs),rhsMax =  -5.80438475061840E-14  4.09565844945011E-01
 cg2d: Sum(rhs),rhsMax =   1.08600628490052E-13  4.09485855501695E-01
 cg2d: Sum(rhs),rhsMax =   1.98036032017512E-14  4.09419345422651E-01
 cg2d: Sum(rhs),rhsMax =   1.53696499971545E-14  4.09368185259957E-01
 cg2d: Sum(rhs),rhsMax =   8.29822321968265E-14  4.09334305001691E-01
 cg2d: Sum(rhs),rhsMax =   1.95538030212106E-14  4.09319140206730E-01
 cg2d: Sum(rhs),rhsMax =  -9.71445146547012E-17  4.09323755137013E-01
 cg2d: Sum(rhs),rhsMax =   4.16749967868668E-14  4.09348828342977E-01
 cg2d: Sum(rhs),rhsMax =  -3.98708843718509E-14  4.09394611311490E-01
 cg2d: Sum(rhs),rhsMax =  -1.18724474695853E-14  4.09460956890820E-01
 cg2d: Sum(rhs),rhsMax =   6.68839983397618E-14  4.09547368047613E-01
 cg2d: Sum(rhs),rhsMax =  -6.39627240062168E-14  4.09652821641218E-01
 cg2d: Sum(rhs),rhsMax =   4.31668589762069E-14  4.09775427426836E-01
 cg2d: Sum(rhs),rhsMax =   7.33579863521072E-14  4.09913174650425E-01
 cg2d: Sum(rhs),rhsMax =   1.29049548824867E-13  4.10063876498469E-01
 cg2d: Sum(rhs),rhsMax =   1.31387956070483E-13  4.10225153222321E-01
 cg2d: Sum(rhs),rhsMax =  -1.22443721828347E-13  4.10394124881531E-01
 cg2d: Sum(rhs),rhsMax =   7.94780907753534E-14  4.10565254975570E-01
 cg2d: Sum(rhs),rhsMax =  -1.74776859651615E-13  4.10734981311831E-01
 cg2d: Sum(rhs),rhsMax =   8.64724958304919E-14  4.10899867756116E-01
 cg2d: Sum(rhs),rhsMax =  -6.30329122230933E-14  4.11056899667275E-01
 cg2d: Sum(rhs),rhsMax =  -8.02136135291676E-15  4.11202546807877E-01
 cg2d: Sum(rhs),rhsMax =  -3.02674552088433E-14  4.11333638845462E-01
 cg2d: Sum(rhs),rhsMax =   1.14866449685280E-13  4.11447109837109E-01
 cg2d: Sum(rhs),rhsMax =  -3.65055208284559E-14  4.11540118803556E-01
 cg2d: Sum(rhs),rhsMax =  -1.00766617272541E-13  4.11610178306285E-01
 cg2d: Sum(rhs),rhsMax =  -2.76653699948781E-14  4.11655033589716E-01
 cg2d: Sum(rhs),rhsMax =  -3.82888165617601E-14  4.11672886246882E-01
 cg2d: Sum(rhs),rhsMax =  -3.32442406936195E-14  4.11664146889476E-01
 cg2d: Sum(rhs),rhsMax =   3.64222541016090E-14  4.11626306810642E-01
 cg2d: Sum(rhs),rhsMax =  -4.40272818202914E-14  4.11557999113822E-01
 cg2d: Sum(rhs),rhsMax =   8.75965966429249E-14  4.11459335595311E-01
 cg2d: Sum(rhs),rhsMax =   9.92955717649124E-15  4.11330622699808E-01
 cg2d: Sum(rhs),rhsMax =  -4.51028103753970E-14  4.11173203375316E-01
 cg2d: Sum(rhs),rhsMax =  -5.89805981832114E-15  4.10988747844100E-01
 cg2d: Sum(rhs),rhsMax =  -4.34721703079788E-14  4.10779451746218E-01
 cg2d: Sum(rhs),rhsMax =   9.35848620819968E-14  4.10548031059076E-01
 cg2d: Sum(rhs),rhsMax =  -1.90035487346307E-13  4.10311341362640E-01
 cg2d: Sum(rhs),rhsMax =   1.34024735753968E-13  4.10073802801223E-01
 cg2d: Sum(rhs),rhsMax =  -2.17451057160645E-13  4.09822609172587E-01
 cg2d: Sum(rhs),rhsMax =   2.25375273998907E-14  4.09561260170177E-01
 cg2d: Sum(rhs),rhsMax =   1.43919598460940E-13  4.09293463321408E-01
 cg2d: Sum(rhs),rhsMax =  -1.17496290474861E-13  4.09022841325695E-01
 cg2d: Sum(rhs),rhsMax =   1.07684694494736E-13  4.08751827367013E-01
 cg2d: Sum(rhs),rhsMax =  -8.64308624670684E-14  4.08481942706287E-01
 cg2d: Sum(rhs),rhsMax =   7.13595849077819E-14  4.08216704420018E-01
 cg2d: Sum(rhs),rhsMax =   2.61041188664990E-14  4.07959448967712E-01
 cg2d: Sum(rhs),rhsMax =   6.68284871885305E-14  4.07713278057682E-01
 cg2d: Sum(rhs),rhsMax =  -9.43342626236188E-14  4.07480990125726E-01
 cg2d: Sum(rhs),rhsMax =  -4.01137456584877E-14  4.07265161915873E-01
 cg2d: Sum(rhs),rhsMax =   6.06945049774765E-14  4.07067363547360E-01
 cg2d: Sum(rhs),rhsMax =  -3.06976666308856E-14  4.06888969618755E-01
 cg2d: Sum(rhs),rhsMax =   1.39332989590457E-14  4.06732515046916E-01
 cg2d: Sum(rhs),rhsMax =   6.96109836439973E-14  4.06597385577378E-01
 cg2d: Sum(rhs),rhsMax =  -5.08135200583126E-14  4.06483737596021E-01
 cg2d: Sum(rhs),rhsMax =  -6.93750612512645E-14  4.06391276096193E-01
 cg2d: Sum(rhs),rhsMax =   3.44724249146111E-14  4.06317671035826E-01
 cg2d: Sum(rhs),rhsMax =  -1.08524300657109E-14  4.06259634086099E-01
 cg2d: Sum(rhs),rhsMax =   1.00135177927285E-13  4.06217798566169E-01
 cg2d: Sum(rhs),rhsMax =   1.97758476261356E-15  4.06189729433949E-01
 cg2d: Sum(rhs),rhsMax =   7.66955943198866E-14  4.06172915210457E-01
 cg2d: Sum(rhs),rhsMax =   2.92682544866807E-14  4.06164602458514E-01
 cg2d: Sum(rhs),rhsMax =  -1.64125657509118E-13  4.06161226986850E-01
 cg2d: Sum(rhs),rhsMax =   7.93462517911792E-14  4.06159003196568E-01
 cg2d: Sum(rhs),rhsMax =  -6.92362833731863E-14  4.06153981847455E-01
 cg2d: Sum(rhs),rhsMax =   3.08433834028676E-14  4.06140655739535E-01
 cg2d: Sum(rhs),rhsMax =  -2.06515360368087E-13  4.06112488769905E-01
 cg2d: Sum(rhs),rhsMax =  -6.59958199200616E-14  4.06065909349864E-01
 cg2d: Sum(rhs),rhsMax =  -8.01303468023207E-14  4.05997493540271E-01
 cg2d: Sum(rhs),rhsMax =  -1.08919817609632E-13  4.05905613558728E-01
 cg2d: Sum(rhs),rhsMax =   3.30985239216375E-15  4.05788475153675E-01
 cg2d: Sum(rhs),rhsMax =   6.44276298977786E-14  4.05644706058593E-01
 cg2d: Sum(rhs),rhsMax =  -2.66800470605233E-13  4.05473611625112E-01
 cg2d: Sum(rhs),rhsMax =   2.27734497926235E-14  4.05275070507940E-01
 cg2d: Sum(rhs),rhsMax =   4.60950722036557E-14  4.05049398474834E-01
 cg2d: Sum(rhs),rhsMax =  -3.38895578266829E-14  4.04797633269233E-01
 cg2d: Sum(rhs),rhsMax =  -1.40998324127395E-13  4.04521539553330E-01
 cg2d: Sum(rhs),rhsMax =  -5.56152346398164E-14  4.04223668856216E-01
 cg2d: Sum(rhs),rhsMax =   3.58532648014886E-14  4.03906493945924E-01
 cg2d: Sum(rhs),rhsMax =  -1.52988732793347E-13  4.03573384062594E-01
 cg2d: Sum(rhs),rhsMax =  -9.54514245421478E-14  4.03227686855910E-01
 cg2d: Sum(rhs),rhsMax =   3.64430707833208E-14  4.02874435253183E-01
 cg2d: Sum(rhs),rhsMax =   1.18752230271468E-13  4.02518313988317E-01
 cg2d: Sum(rhs),rhsMax =   1.11993747609063E-13  4.02163145440139E-01
 cg2d: Sum(rhs),rhsMax =  -1.06657738196958E-13  4.01812925514399E-01
 cg2d: Sum(rhs),rhsMax =  -4.15917300600199E-14  4.01471494429708E-01
 cg2d: Sum(rhs),rhsMax =  -9.31407728721467E-14  4.01142632968588E-01
 cg2d: Sum(rhs),rhsMax =   1.46382905796827E-13  4.00829960966676E-01
 cg2d: Sum(rhs),rhsMax =   9.18015663486926E-15  4.00536856956913E-01
 cg2d: Sum(rhs),rhsMax =  -5.44217448883444E-14  4.00261182696726E-01
 cg2d: Sum(rhs),rhsMax =  -1.98313587773669E-14  4.00004895469318E-01
 cg2d: Sum(rhs),rhsMax =  -3.43405859304369E-14  3.99770119836327E-01
 cg2d: Sum(rhs),rhsMax =  -2.16153484000614E-13  3.99556959825555E-01
 cg2d: Sum(rhs),rhsMax =   7.36216643204557E-14  3.99369587095654E-01
 cg2d: Sum(rhs),rhsMax =  -9.96216997783961E-14  3.99210384535424E-01
 cg2d: Sum(rhs),rhsMax =  -8.55843174107918E-14  3.99081172520925E-01
 cg2d: Sum(rhs),rhsMax =  -1.67699187869630E-13  3.98983022134048E-01
 cg2d: Sum(rhs),rhsMax =  -1.32283073384087E-13  3.98916389283218E-01
 cg2d: Sum(rhs),rhsMax =  -4.66501837159683E-14  3.98881362388367E-01
 cg2d: Sum(rhs),rhsMax =   8.24063040028022E-14  3.98877730581410E-01
 cg2d: Sum(rhs),rhsMax =  -1.88037085901982E-13  3.98904312927138E-01
 cg2d: Sum(rhs),rhsMax =  -1.81903103690928E-13  3.98968497770990E-01
 cg2d: Sum(rhs),rhsMax =  -6.09928774153445E-15  3.99058512002595E-01
 cg2d: Sum(rhs),rhsMax =   1.00135177927285E-13  3.99173585959247E-01
 cg2d: Sum(rhs),rhsMax =  -3.43426675986080E-13  3.99304459069624E-01
 cg2d: Sum(rhs),rhsMax =   5.39152056333592E-15  3.99454314826538E-01
 cg2d: Sum(rhs),rhsMax =  -1.28300148283245E-14  3.99618476643720E-01
 cg2d: Sum(rhs),rhsMax =   5.85226311855536E-14  3.99791532116437E-01
 cg2d: Sum(rhs),rhsMax =   1.43780820582862E-13  3.99966039956350E-01
 cg2d: Sum(rhs),rhsMax =  -1.50102152929321E-13  4.00137393539561E-01
 cg2d: Sum(rhs),rhsMax =   6.02504157676265E-14  4.00302136965559E-01
 cg2d: Sum(rhs),rhsMax =   8.88941698029555E-14  4.00451386823933E-01
 cg2d: Sum(rhs),rhsMax =   2.58432164557121E-13  4.00580954923173E-01
 cg2d: Sum(rhs),rhsMax =  -1.00093544563862E-13  4.00688150783844E-01
 cg2d: Sum(rhs),rhsMax =   1.49304180130372E-13  4.00771145142244E-01
 cg2d: Sum(rhs),rhsMax =   1.39041556046493E-13  4.00828965329804E-01
 cg2d: Sum(rhs),rhsMax =  -3.53675422282151E-14  4.00863368713298E-01
 cg2d: Sum(rhs),rhsMax =  -1.02994002215695E-13  4.00871772998487E-01
 cg2d: Sum(rhs),rhsMax =  -2.22613594225152E-13  4.00854055062677E-01
 cg2d: Sum(rhs),rhsMax =   2.10942374678780E-13  4.00810225411531E-01
 cg2d: Sum(rhs),rhsMax =  -2.79970491234849E-13  4.00740779365955E-01
 cg2d: Sum(rhs),rhsMax =   7.77433672993766E-14  4.00645698437052E-01
 cg2d: Sum(rhs),rhsMax =   6.62664367823140E-14  4.00526200474489E-01
 cg2d: Sum(rhs),rhsMax =   1.40581990493160E-14  4.00386632272966E-01
 cg2d: Sum(rhs),rhsMax =   3.63736818442817E-14  4.00229729438947E-01
 cg2d: Sum(rhs),rhsMax =   1.70828629020292E-13  4.00238419470090E-01
 cg2d: Sum(rhs),rhsMax =  -1.65166491594704E-13  4.00545557334283E-01
 cg2d: Sum(rhs),rhsMax =  -1.21777588013572E-14  4.00850082070662E-01
 cg2d: Sum(rhs),rhsMax =  -5.00363639410750E-14  4.01149728720084E-01
 cg2d: Sum(rhs),rhsMax =  -1.72653558117020E-13  4.01445146811437E-01
 cg2d: Sum(rhs),rhsMax =  -4.11476408501699E-15  4.01738057319755E-01
 cg2d: Sum(rhs),rhsMax =   8.18789480661053E-16  4.02030282255770E-01
 cg2d: Sum(rhs),rhsMax =  -1.03951569574434E-13  4.02325749043786E-01
 cg2d: Sum(rhs),rhsMax =   8.40022496007009E-14  4.02628872660745E-01
 cg2d: Sum(rhs),rhsMax =  -8.72704686294412E-14  4.02937049835076E-01
 cg2d: Sum(rhs),rhsMax =  -5.44703171456717E-14  4.03255209436976E-01
 cg2d: Sum(rhs),rhsMax =  -1.09523501379272E-13  4.03586239662383E-01
 cg2d: Sum(rhs),rhsMax =  -3.19605453213967E-14  4.03932904301858E-01
 cg2d: Sum(rhs),rhsMax =  -1.36279876272738E-14  4.04297794877825E-01
 cg2d: Sum(rhs),rhsMax =  -1.88432602854505E-13  4.04683226827873E-01
 cg2d: Sum(rhs),rhsMax =   1.28647092978440E-13  4.05091169145239E-01
 cg2d: Sum(rhs),rhsMax =  -6.60790866469085E-14  4.05526213280787E-01
 cg2d: Sum(rhs),rhsMax =   1.75852388206721E-13  4.05992115463223E-01
 cg2d: Sum(rhs),rhsMax =   1.68538794032003E-13  4.06479089554124E-01
 cg2d: Sum(rhs),rhsMax =   1.20584098262100E-13  4.06986681859216E-01
 cg2d: Sum(rhs),rhsMax =  -4.95228857921859E-14  4.07514812491633E-01
 cg2d: Sum(rhs),rhsMax =   8.31279489688086E-15  4.08062180377445E-01
 cg2d: Sum(rhs),rhsMax =   4.10643741233230E-14  4.08627008080093E-01
 cg2d: Sum(rhs),rhsMax =  -3.98570065840431E-14  4.09208142586988E-01
 cg2d: Sum(rhs),rhsMax =   3.26544347117874E-14  4.09803986504685E-01
 cg2d: Sum(rhs),rhsMax =  -1.70655156672694E-13  4.10412957016948E-01
 cg2d: Sum(rhs),rhsMax =   2.12746487093796E-14  4.11035142590718E-01
 cg2d: Sum(rhs),rhsMax =   1.64125657509118E-13  4.11667482231410E-01
 cg2d: Sum(rhs),rhsMax =   6.00769434200288E-14  4.12301030012740E-01
 cg2d: Sum(rhs),rhsMax =  -4.51999548900517E-14  4.12815801108630E-01
 cg2d: Sum(rhs),rhsMax =  -7.86870568703080E-14  4.13333123712612E-01
 cg2d: Sum(rhs),rhsMax =  -1.99666672084930E-13  4.13854124939718E-01
 cg2d: Sum(rhs),rhsMax =   5.93275428784068E-15  4.14376243167443E-01
 cg2d: Sum(rhs),rhsMax =  -4.35901315043452E-14  4.14896771810502E-01
 cg2d: Sum(rhs),rhsMax =   2.17048601314218E-14  4.15414022163223E-01
 cg2d: Sum(rhs),rhsMax =   4.64767113683706E-14  4.15924945221176E-01
 cg2d: Sum(rhs),rhsMax =  -7.61196661258623E-14  4.16425634388114E-01
 cg2d: Sum(rhs),rhsMax =   1.10120246255008E-14  4.16911878341701E-01
 cg2d: Sum(rhs),rhsMax =   5.10425035571416E-14  4.17388131209646E-01
 cg2d: Sum(rhs),rhsMax =  -1.26523791443844E-13  4.17849348082943E-01
 cg2d: Sum(rhs),rhsMax =   1.65908953242422E-13  4.18297041712303E-01
 cg2d: Sum(rhs),rhsMax =  -2.67424971056585E-14  4.18725168852434E-01
 cg2d: Sum(rhs),rhsMax =   6.55864251797311E-14  4.19134333882657E-01
 cg2d: Sum(rhs),rhsMax =   9.26272947232576E-14  4.19523691874153E-01
 cg2d: Sum(rhs),rhsMax =  -1.10189635194047E-13  4.19894043673841E-01
 cg2d: Sum(rhs),rhsMax =  -2.53325138643845E-13  4.20246586350065E-01
 cg2d: Sum(rhs),rhsMax =   7.90201237776955E-14  4.20582886938911E-01
 cg2d: Sum(rhs),rhsMax =  -1.49338874599891E-13  4.20904750556658E-01
 cg2d: Sum(rhs),rhsMax =   2.93098878501041E-14  4.21214894943398E-01
 cg2d: Sum(rhs),rhsMax =  -2.22113993864070E-14  4.21515557226808E-01
 cg2d: Sum(rhs),rhsMax =  -4.36664593372882E-14  4.21808918984563E-01
 cg2d: Sum(rhs),rhsMax =   8.85472251077601E-14  4.22097649161206E-01
 cg2d: Sum(rhs),rhsMax =  -1.14151743613178E-13  4.22384171955847E-01
 cg2d: Sum(rhs),rhsMax =   1.27661770044085E-13  4.22670541638246E-01
 cg2d: Sum(rhs),rhsMax =   1.22679644221080E-14  4.22959919744591E-01
 cg2d: Sum(rhs),rhsMax =  -3.79210551848530E-14  4.23254236510248E-01
 cg2d: Sum(rhs),rhsMax =   1.33761057785620E-13  4.23555378488622E-01
 cg2d: Sum(rhs),rhsMax =  -1.38930533744031E-13  4.23865046273238E-01
 cg2d: Sum(rhs),rhsMax =  -9.64506252643105E-14  4.24177337056220E-01
 cg2d: Sum(rhs),rhsMax =  -1.94219640370363E-14  4.24502569886214E-01
 cg2d: Sum(rhs),rhsMax =  -2.38836728172487E-14  4.24842421133811E-01
 cg2d: Sum(rhs),rhsMax =   1.42330591756945E-13  4.25190868939872E-01
 cg2d: Sum(rhs),rhsMax =  -3.63875596320895E-14  4.25547459323056E-01
 cg2d: Sum(rhs),rhsMax =   1.88390969491081E-14  4.25911984740355E-01
 cg2d: Sum(rhs),rhsMax =  -9.05525654459893E-14  4.26283298448597E-01
 cg2d: Sum(rhs),rhsMax =   9.74637037742809E-14  4.26660838443276E-01
 cg2d: Sum(rhs),rhsMax =   8.45643000069174E-14  4.27043844906884E-01
 cg2d: Sum(rhs),rhsMax =   6.93889390390723E-16  4.27430941784850E-01
 cg2d: Sum(rhs),rhsMax =   1.02383379552151E-13  4.27821492431290E-01
 cg2d: Sum(rhs),rhsMax =   4.04676292475870E-14  4.28214180521860E-01
 cg2d: Sum(rhs),rhsMax =  -5.12645481620666E-14  4.28607534748376E-01
 cg2d: Sum(rhs),rhsMax =  -3.93504673290579E-14  4.29000232699790E-01
 cg2d: Sum(rhs),rhsMax =   2.41300035508374E-13  4.29390560760713E-01
 cg2d: Sum(rhs),rhsMax =  -8.74925132343662E-14  4.29776951182662E-01
 cg2d: Sum(rhs),rhsMax =   9.74290093047614E-14  4.30157865978778E-01
 cg2d: Sum(rhs),rhsMax =   4.64697724744667E-14  4.30531985123946E-01
 cg2d: Sum(rhs),rhsMax =   4.33195146420928E-14  4.30897497637924E-01
 cg2d: Sum(rhs),rhsMax =  -8.27948820614210E-14  4.31253283167859E-01
 cg2d: Sum(rhs),rhsMax =   4.55468995852470E-14  4.31597765697352E-01
 cg2d: Sum(rhs),rhsMax =   6.07847105982273E-15  4.31929741753623E-01
 cg2d: Sum(rhs),rhsMax =  -3.01494940124769E-14  4.32247828076672E-01
 cg2d: Sum(rhs),rhsMax =  -4.81559236931162E-15  4.32550821409562E-01
 cg2d: Sum(rhs),rhsMax =   1.04957709190501E-13  4.32838245852830E-01
 cg2d: Sum(rhs),rhsMax =  -1.24636412301982E-13  4.33109641328813E-01
 cg2d: Sum(rhs),rhsMax =   1.07559794404466E-13  4.33364608927494E-01
 cg2d: Sum(rhs),rhsMax =   6.27831120425526E-14  4.33606063782044E-01
 cg2d: Sum(rhs),rhsMax =  -4.85167461761193E-14  4.33834292797964E-01
 cg2d: Sum(rhs),rhsMax =   6.76472766691916E-14  4.34050477393463E-01
 cg2d: Sum(rhs),rhsMax =  -6.62248034188906E-14  4.34255932593208E-01
 cg2d: Sum(rhs),rhsMax =   4.72746841673199E-14  4.34452307602323E-01
 cg2d: Sum(rhs),rhsMax =  -1.00239261335844E-13  4.34641639956188E-01
 cg2d: Sum(rhs),rhsMax =   7.07767178198537E-15  4.34826022700084E-01
 cg2d: Sum(rhs),rhsMax =   3.20091175787240E-14  4.35004504715207E-01
 cg2d: Sum(rhs),rhsMax =  -1.16524845328314E-13  4.35178922537845E-01
 cg2d: Sum(rhs),rhsMax =   6.32688346158261E-14  4.35352122971494E-01
 cg2d: Sum(rhs),rhsMax =   4.73857064697825E-14  4.35527329637161E-01
 cg2d: Sum(rhs),rhsMax =   9.37236399600749E-14  4.35707630502432E-01
 cg2d: Sum(rhs),rhsMax =   1.23130672324834E-13  4.35895853076196E-01
 cg2d: Sum(rhs),rhsMax =  -5.57540125178946E-14  4.36094293160911E-01
 cg2d: Sum(rhs),rhsMax =  -6.53851972565178E-14  4.36306962697725E-01
 cg2d: Sum(rhs),rhsMax =   1.20535526004772E-13  4.36535609498565E-01
 cg2d: Sum(rhs),rhsMax =  -2.24403828852360E-14  4.36782722074175E-01
 cg2d: Sum(rhs),rhsMax =  -4.06757960647042E-14  4.37050476540794E-01
 cg2d: Sum(rhs),rhsMax =  -3.35009797680641E-14  4.37340668469790E-01
 cg2d: Sum(rhs),rhsMax =  -3.65957264492067E-14  4.37654621026834E-01
 cg2d: Sum(rhs),rhsMax =  -5.36029554076833E-14  4.37993358574520E-01
 cg2d: Sum(rhs),rhsMax =   4.83155182529060E-14  4.38358488048272E-01
 cg2d: Sum(rhs),rhsMax =   1.57984736404160E-13  4.38749868168084E-01
 cg2d: Sum(rhs),rhsMax =   9.20929998926567E-14  4.39167132640208E-01
 cg2d: Sum(rhs),rhsMax =   4.17166301502903E-14  4.39609549333623E-01
 cg2d: Sum(rhs),rhsMax =  -1.84872950281800E-13  4.40077302802626E-01
 cg2d: Sum(rhs),rhsMax =   1.16434639707563E-14  4.40567594925695E-01
 cg2d: Sum(rhs),rhsMax =  -1.07622244449601E-14  4.41077491967422E-01
 cg2d: Sum(rhs),rhsMax =  -5.58025847752219E-14  4.41605201932220E-01
 cg2d: Sum(rhs),rhsMax =  -1.60427227058335E-14  4.42148601413280E-01
 cg2d: Sum(rhs),rhsMax =  -6.05626659933023E-14  4.42704894204782E-01
 cg2d: Sum(rhs),rhsMax =  -2.16354711923827E-14  4.43271759543208E-01
 cg2d: Sum(rhs),rhsMax =  -4.76840789076505E-14  4.43846567209939E-01
 cg2d: Sum(rhs),rhsMax =   3.72965547335014E-14  4.44426562645966E-01
 cg2d: Sum(rhs),rhsMax =  -2.95319324550292E-14  4.45008900548558E-01
 cg2d: Sum(rhs),rhsMax =   1.48631107421693E-14  4.45589730976459E-01
 cg2d: Sum(rhs),rhsMax =   2.32522334719931E-14  4.46169445244856E-01
 cg2d: Sum(rhs),rhsMax =  -2.44526621173691E-14  4.46745795870989E-01
 cg2d: Sum(rhs),rhsMax =  -1.72223346694977E-14  4.47312328382409E-01
 cg2d: Sum(rhs),rhsMax =   5.62674906667837E-14  4.47868493270222E-01
 cg2d: Sum(rhs),rhsMax =   1.06095687790742E-14  4.48410181931824E-01
 cg2d: Sum(rhs),rhsMax =  -5.76344527658534E-14  4.48937107529015E-01
 cg2d: Sum(rhs),rhsMax =  -6.40390518391598E-14  4.49447085177350E-01
 cg2d: Sum(rhs),rhsMax =  -1.39444011892920E-13  4.49938746014017E-01
 cg2d: Sum(rhs),rhsMax =  -7.56339435525888E-15  4.50411077590710E-01
 cg2d: Sum(rhs),rhsMax =   3.32164851180039E-14  4.50863402284892E-01
 cg2d: Sum(rhs),rhsMax =   4.85445017517350E-14  4.51295408801934E-01
 cg2d: Sum(rhs),rhsMax =  -9.14754383352090E-14  4.51707107421679E-01
 cg2d: Sum(rhs),rhsMax =   5.06678032863306E-14  4.52098920398266E-01
 cg2d: Sum(rhs),rhsMax =  -2.09623984837037E-14  4.52471613727660E-01
 cg2d: Sum(rhs),rhsMax =   1.30270794151954E-13  4.52828225108928E-01
 cg2d: Sum(rhs),rhsMax =  -4.20913304211012E-14  4.53169031804608E-01
 cg2d: Sum(rhs),rhsMax =  -5.61981017277446E-14  4.53494533074827E-01
 cg2d: Sum(rhs),rhsMax =  -8.60700399840653E-14  4.53806686003214E-01
 cg2d: Sum(rhs),rhsMax =  -6.83689216351979E-14  4.54106959036031E-01
 cg2d: Sum(rhs),rhsMax =  -5.02861641216157E-14  4.54398659721140E-01
 cg2d: Sum(rhs),rhsMax =   4.74273398332059E-14  4.54684009813554E-01
 cg2d: Sum(rhs),rhsMax =  -5.13547537828174E-14  4.54958074613526E-01
 cg2d: Sum(rhs),rhsMax =  -1.36661515437453E-13  4.55223890196990E-01
 cg2d: Sum(rhs),rhsMax =  -7.68066166223491E-14  4.55484278633148E-01
 cg2d: Sum(rhs),rhsMax =   8.56953397132543E-15  4.55742501409794E-01
 cg2d: Sum(rhs),rhsMax =   4.82253126321552E-14  4.56001036692287E-01
 cg2d: Sum(rhs),rhsMax =  -1.30742638937420E-13  4.56262301295280E-01
 cg2d: Sum(rhs),rhsMax =   5.25135490647699E-14  4.56528686140437E-01
 cg2d: Sum(rhs),rhsMax =  -1.04846686888038E-13  4.56802522837939E-01
 cg2d: Sum(rhs),rhsMax =  -6.30884233743245E-14  4.57085491807169E-01
 cg2d: Sum(rhs),rhsMax =  -1.62654612001489E-13  4.57378817518088E-01
 cg2d: Sum(rhs),rhsMax =   3.78655440336217E-14  4.57684443262370E-01
 cg2d: Sum(rhs),rhsMax =  -6.48855968954365E-14  4.58003552695165E-01
 cg2d: Sum(rhs),rhsMax =  -1.06012421063895E-13  4.58337388095989E-01
 cg2d: Sum(rhs),rhsMax =  -8.37246938445446E-14  4.58687002135388E-01
 cg2d: Sum(rhs),rhsMax =  -1.82513726354472E-13  4.59053547617695E-01
 cg2d: Sum(rhs),rhsMax =  -4.41313652288500E-15  4.59437450494784E-01
 cg2d: Sum(rhs),rhsMax =  -7.30249194447197E-14  4.59838127882361E-01
 cg2d: Sum(rhs),rhsMax =  -9.10035935497433E-14  4.60254395385849E-01
 cg2d: Sum(rhs),rhsMax =  -5.63854518631501E-14  4.60686638241923E-01
 cg2d: Sum(rhs),rhsMax =  -1.29132815551714E-14  4.61133859258516E-01
 cg2d: Sum(rhs),rhsMax =  -4.71012118197223E-14  4.61594947223373E-01
 cg2d: Sum(rhs),rhsMax =  -1.69378400194375E-14  4.62058473388271E-01
 cg2d: Sum(rhs),rhsMax =  -3.44654860207072E-14  4.62523054691906E-01
 cg2d: Sum(rhs),rhsMax =   8.22952817003397E-15  4.62986596955218E-01
 cg2d: Sum(rhs),rhsMax =  -1.78329573330416E-14  4.63447295084781E-01
 cg2d: Sum(rhs),rhsMax =   1.59011692701938E-13  4.63901068907021E-01
 cg2d: Sum(rhs),rhsMax =  -6.60582699651968E-15  4.64345443230622E-01
 cg2d: Sum(rhs),rhsMax =  -7.40033034851706E-14  4.64778469749708E-01
 cg2d: Sum(rhs),rhsMax =   3.88092336045531E-14  4.65197672391014E-01
 cg2d: Sum(rhs),rhsMax =  -1.09898201650083E-13  4.65602632199511E-01
 cg2d: Sum(rhs),rhsMax =  -9.16905440462301E-14  4.65992156854260E-01
 cg2d: Sum(rhs),rhsMax =  -8.19205814295287E-14  4.66364045228296E-01
 cg2d: Sum(rhs),rhsMax =   1.01585406753202E-13  4.66716799997705E-01
 cg2d: Sum(rhs),rhsMax =  -6.34700625390394E-14  4.67049062771785E-01
 cg2d: Sum(rhs),rhsMax =  -1.38195010990216E-13  4.67359530210278E-01
 cg2d: Sum(rhs),rhsMax =   7.66817165320788E-14  4.67647039761364E-01
 cg2d: Sum(rhs),rhsMax =   1.70682912248310E-13  4.67910773304024E-01
 cg2d: Sum(rhs),rhsMax =  -5.51086953848312E-14  4.68140846938896E-01
 cg2d: Sum(rhs),rhsMax =  -6.85840273462190E-14  4.68348312722745E-01
 cg2d: Sum(rhs),rhsMax =   1.10585152146569E-13  4.68534560303255E-01
 cg2d: Sum(rhs),rhsMax =   5.02514696520961E-14  4.68700658221598E-01
 cg2d: Sum(rhs),rhsMax =   6.98122115672106E-14  4.68846921772015E-01
 cg2d: Sum(rhs),rhsMax =  -4.41729985922734E-14  4.68975750841015E-01
 cg2d: Sum(rhs),rhsMax =   1.27120536319580E-14  4.69088241584610E-01
 cg2d: Sum(rhs),rhsMax =  -1.20133070158346E-13  4.69186470967604E-01
 cg2d: Sum(rhs),rhsMax =   1.61606839021999E-14  4.69273721313833E-01
 cg2d: Sum(rhs),rhsMax =  -1.09516562485368E-13  4.69348657536038E-01
 cg2d: Sum(rhs),rhsMax =  -3.39658856596259E-14  4.69410109105290E-01
 cg2d: Sum(rhs),rhsMax =   6.30467900109011E-14  4.69462340736640E-01
 cg2d: Sum(rhs),rhsMax =   1.69725344889571E-14  4.69509065900491E-01
 cg2d: Sum(rhs),rhsMax =   4.32986979603811E-15  4.69554316197622E-01
 cg2d: Sum(rhs),rhsMax =  -1.12132525487141E-13  4.69600340554590E-01
 cg2d: Sum(rhs),rhsMax =   1.00475183728577E-14  4.69652401809557E-01
 cg2d: Sum(rhs),rhsMax =  -1.05436492869870E-13  4.69715011958123E-01
 cg2d: Sum(rhs),rhsMax =  -9.13089048815152E-14  4.69792677023302E-01
 cg2d: Sum(rhs),rhsMax =  -1.48006606970341E-14  4.69889617160782E-01
 cg2d: Sum(rhs),rhsMax =  -4.54566939644963E-14  4.70009764579753E-01
 cg2d: Sum(rhs),rhsMax =   1.60219060241218E-14  4.70156632956676E-01
 cg2d: Sum(rhs),rhsMax =   1.21916365891650E-14  4.70333242262677E-01
 cg2d: Sum(rhs),rhsMax =   2.26207941267376E-14  4.70541860872195E-01
 cg2d: Sum(rhs),rhsMax =  -6.66411370531250E-14  4.70786735703757E-01
 cg2d: Sum(rhs),rhsMax =   3.48332473976143E-15  4.71070296898818E-01
 cg2d: Sum(rhs),rhsMax =   1.27106658531773E-13  4.71391234136124E-01
 cg2d: Sum(rhs),rhsMax =   8.74370020831350E-14  4.71750790206625E-01
 cg2d: Sum(rhs),rhsMax =  -1.15463194561016E-13  4.72148672465748E-01
 cg2d: Sum(rhs),rhsMax =  -3.26544347117874E-14  4.72583315236568E-01
 cg2d: Sum(rhs),rhsMax =   1.58553725704280E-13  4.73044098957256E-01
 cg2d: Sum(rhs),rhsMax =  -2.12503625807159E-13  4.73527698314192E-01
 cg2d: Sum(rhs),rhsMax =  -1.05783437565066E-13  4.74031917472653E-01
 cg2d: Sum(rhs),rhsMax =  -6.08540995372664E-15  4.74551572231359E-01
 cg2d: Sum(rhs),rhsMax =   5.94871374381967E-14  4.75083766299129E-01
 cg2d: Sum(rhs),rhsMax =   1.20493892641349E-13  4.75623449584962E-01
 cg2d: Sum(rhs),rhsMax =   4.79963291333263E-14  4.76165821495601E-01
 cg2d: Sum(rhs),rhsMax =  -1.41650580154362E-13  4.76708769440873E-01
 cg2d: Sum(rhs),rhsMax =  -1.48492329543615E-15  4.77251112900065E-01
 cg2d: Sum(rhs),rhsMax =  -1.21298804334202E-13  4.77790806528454E-01
 cg2d: Sum(rhs),rhsMax =  -1.14630527292547E-14  4.78324560902960E-01
 cg2d: Sum(rhs),rhsMax =  -5.68226021790963E-14  4.78848613357597E-01
 cg2d: Sum(rhs),rhsMax =  -1.20410625914502E-13  4.79360215604686E-01
 cg2d: Sum(rhs),rhsMax =  -2.11462791721573E-13  4.79855611903295E-01
 cg2d: Sum(rhs),rhsMax =  -1.08801856413265E-14  4.80334871162401E-01
 cg2d: Sum(rhs),rhsMax =  -4.97657470788226E-14  4.80793460351051E-01
 cg2d: Sum(rhs),rhsMax =  -8.85194695321445E-14  4.81229439154397E-01
 cg2d: Sum(rhs),rhsMax =  -1.18821619210507E-13  4.81641882289242E-01
 cg2d: Sum(rhs),rhsMax =   1.37459488236402E-14  4.82029900891271E-01
 cg2d: Sum(rhs),rhsMax =  -4.05786515500495E-14  4.82390962896183E-01
 cg2d: Sum(rhs),rhsMax =  -1.27634014468470E-13  4.82724396496370E-01
 cg2d: Sum(rhs),rhsMax =  -6.27067842096096E-14  4.83030262688535E-01
 cg2d: Sum(rhs),rhsMax =  -1.24567023362943E-13  4.83307729451614E-01
 cg2d: Sum(rhs),rhsMax =   7.83956233263439E-14  4.83556759659682E-01
 cg2d: Sum(rhs),rhsMax =  -4.67056948671996E-14  4.83780328226597E-01
 cg2d: Sum(rhs),rhsMax =  -1.57512891618694E-13  4.83980644801461E-01
 cg2d: Sum(rhs),rhsMax =  -5.88834536685567E-14  4.84161406692395E-01
 cg2d: Sum(rhs),rhsMax =  -4.21399026784286E-14  4.84316096049414E-01
 cg2d: Sum(rhs),rhsMax =  -2.33424390927439E-14  4.84448159878402E-01
 cg2d: Sum(rhs),rhsMax =   2.39322450745760E-14  4.84561885738093E-01
 cg2d: Sum(rhs),rhsMax =  -3.92672006022110E-14  4.84661771360988E-01
 cg2d: Sum(rhs),rhsMax =  -2.24611995669477E-14  4.84752324517023E-01
 cg2d: Sum(rhs),rhsMax =  -6.59819421322538E-14  4.84838057689751E-01
 cg2d: Sum(rhs),rhsMax =   5.77385361744120E-14  4.84923812602098E-01
 cg2d: Sum(rhs),rhsMax =  -8.14417977501591E-14  4.85014874131396E-01
 cg2d: Sum(rhs),rhsMax =  -1.60704782814491E-14  4.85116347494960E-01
 cg2d: Sum(rhs),rhsMax =  -1.40075451238175E-13  4.85232857307273E-01
 cg2d: Sum(rhs),rhsMax =   2.01783034725622E-14  4.85368247101499E-01
 cg2d: Sum(rhs),rhsMax =   1.44745326835505E-14  4.85526351434609E-01
 cg2d: Sum(rhs),rhsMax =  -1.54008750197221E-13  4.85710785088021E-01
 cg2d: Sum(rhs),rhsMax =  -4.13002965160558E-14  4.85925969969895E-01
 cg2d: Sum(rhs),rhsMax =  -9.50975409530486E-14  4.86174728590283E-01
 cg2d: Sum(rhs),rhsMax =  -1.25732757538799E-14  4.86459127814706E-01
 cg2d: Sum(rhs),rhsMax =   1.67296732023203E-14  4.86779506622336E-01
 cg2d: Sum(rhs),rhsMax =  -3.30221960886945E-14  4.87136677956350E-01
 cg2d: Sum(rhs),rhsMax =  -1.46757606067638E-14  4.87530725862004E-01
 cg2d: Sum(rhs),rhsMax =  -8.93382590128056E-14  4.87961124623778E-01
 cg2d: Sum(rhs),rhsMax =  -1.00724983909117E-13  4.88426712923257E-01
 cg2d: Sum(rhs),rhsMax =  -6.02989880249538E-15  4.88920261668129E-01
 cg2d: Sum(rhs),rhsMax =   1.32671651442706E-14  4.89439677150646E-01
 cg2d: Sum(rhs),rhsMax =   2.78319034485719E-14  4.89981906151969E-01
 cg2d: Sum(rhs),rhsMax =  -4.46864767411626E-14  4.90542869753998E-01
 cg2d: Sum(rhs),rhsMax =  -3.26821902874030E-14  4.91118127925703E-01
 cg2d: Sum(rhs),rhsMax =  -4.34791092018827E-14  4.91703171417427E-01
 cg2d: Sum(rhs),rhsMax =  -5.25551824281933E-14  4.92293386544843E-01
 cg2d: Sum(rhs),rhsMax =   7.25600135531579E-14  4.92883886990671E-01
 cg2d: Sum(rhs),rhsMax =  -2.33563168805517E-14  4.93469667823928E-01
 cg2d: Sum(rhs),rhsMax =  -2.06341888020489E-13  4.94044843730795E-01
 cg2d: Sum(rhs),rhsMax =  -1.70405356492154E-13  4.94604190124022E-01
 cg2d: Sum(rhs),rhsMax =  -8.67431126927443E-14  4.95144640312896E-01
 cg2d: Sum(rhs),rhsMax =   7.33024752008760E-14  4.95659305135974E-01
 cg2d: Sum(rhs),rhsMax =   1.44953493652622E-14  4.96143683772223E-01
 cg2d: Sum(rhs),rhsMax =  -1.01051111922601E-13  4.96593371758370E-01
 cg2d: Sum(rhs),rhsMax =   6.88268886328558E-14  4.97004319193744E-01
 cg2d: Sum(rhs),rhsMax =   3.11556336285435E-15  4.97373148781002E-01
 cg2d: Sum(rhs),rhsMax =   3.56728535599871E-14  4.97697090813639E-01
 cg2d: Sum(rhs),rhsMax =  -7.30596139142392E-14  4.97973656836264E-01
 cg2d: Sum(rhs),rhsMax =   1.09197373365788E-13  4.98201223536807E-01
 cg2d: Sum(rhs),rhsMax =  -6.52256026967279E-16  4.98378787796709E-01
 cg2d: Sum(rhs),rhsMax =  -9.11631881095332E-14  4.98506114913882E-01
 cg2d: Sum(rhs),rhsMax =  -2.62290189567693E-15  4.98583746235568E-01
 cg2d: Sum(rhs),rhsMax =  -3.63736818442817E-14  4.98612877715073E-01
 cg2d: Sum(rhs),rhsMax =  -6.52672360601514E-14  4.98595239177967E-01
 cg2d: Sum(rhs),rhsMax =  -1.36154976182468E-13  4.98533402941065E-01
 cg2d: Sum(rhs),rhsMax =  -3.54993812123894E-14  4.98430953210526E-01
 cg2d: Sum(rhs),rhsMax =   6.46011022453763E-15  4.98291671235190E-01
 cg2d: Sum(rhs),rhsMax =   1.07289177542214E-13  4.98120176244900E-01
 cg2d: Sum(rhs),rhsMax =   3.59504093161434E-14  4.97921831411845E-01
 cg2d: Sum(rhs),rhsMax =  -9.51252965286642E-14  4.97701672316852E-01
 cg2d: Sum(rhs),rhsMax =  -1.69655955950532E-14  4.97467196597217E-01
 cg2d: Sum(rhs),rhsMax =  -1.10675357767320E-13  4.97111081675494E-01
 cg2d: Sum(rhs),rhsMax =  -4.16403023173473E-14  4.96677412002687E-01
 cg2d: Sum(rhs),rhsMax =   1.98799310346942E-14  4.96248303259458E-01
 cg2d: Sum(rhs),rhsMax =   1.01765817994703E-13  4.95831700784236E-01
 cg2d: Sum(rhs),rhsMax =  -7.46416817243301E-14  4.95434221683217E-01
 cg2d: Sum(rhs),rhsMax =  -7.74311170737008E-14  4.95063485673791E-01
 cg2d: Sum(rhs),rhsMax =   1.71612724031434E-13  4.94720478457586E-01
 cg2d: Sum(rhs),rhsMax =  -5.97438765126412E-15  4.94409835826804E-01
 cg2d: Sum(rhs),rhsMax =   2.94417268342784E-14  4.94136418436754E-01
 cg2d: Sum(rhs),rhsMax =   1.13374587495940E-13  4.93904741687210E-01
 cg2d: Sum(rhs),rhsMax =   1.10848830114918E-13  4.93718781907333E-01
 cg2d: Sum(rhs),rhsMax =   6.05210326298788E-14  4.93581980211311E-01
 cg2d: Sum(rhs),rhsMax =   1.07990005826508E-13  4.93496633512056E-01
 cg2d: Sum(rhs),rhsMax =  -4.21884749357559E-14  4.93463634179004E-01
 cg2d: Sum(rhs),rhsMax =   9.15448272742481E-14  4.93483917179077E-01
 cg2d: Sum(rhs),rhsMax =   5.51642065360625E-14  4.93557776429198E-01
 cg2d: Sum(rhs),rhsMax =  -1.62578284168546E-14  4.93684678709609E-01
 cg2d: Sum(rhs),rhsMax =   1.95746197029223E-14  4.93861806654262E-01
 cg2d: Sum(rhs),rhsMax =  -1.34225963677181E-13  4.94085948292964E-01
 cg2d: Sum(rhs),rhsMax =   7.74727504371242E-14  4.94353364853610E-01
 cg2d: Sum(rhs),rhsMax =  -1.86045623351561E-13  4.94659894568160E-01
 cg2d: Sum(rhs),rhsMax =  -1.08801856413265E-14  4.95001245875298E-01
 cg2d: Sum(rhs),rhsMax =  -4.02664013243736E-14  4.95370402986452E-01
 cg2d: Sum(rhs),rhsMax =   2.83384427035571E-14  4.95765376849940E-01
 cg2d: Sum(rhs),rhsMax =   1.19973475598556E-14  4.96180463871942E-01
 cg2d: Sum(rhs),rhsMax =   5.43801115249209E-14  4.96610013693486E-01
 cg2d: Sum(rhs),rhsMax =   4.12725409404402E-14  4.97037550342008E-01
 cg2d: Sum(rhs),rhsMax =  -4.90094076432968E-14  4.97454591851872E-01
 cg2d: Sum(rhs),rhsMax =   5.29298826990043E-14  4.97854446199899E-01
 cg2d: Sum(rhs),rhsMax =   5.16947595841089E-14  4.98231241320918E-01
 cg2d: Sum(rhs),rhsMax =   4.71081507136262E-14  4.98579725016180E-01
 cg2d: Sum(rhs),rhsMax =  -3.83026943495679E-14  4.98893530700124E-01
 cg2d: Sum(rhs),rhsMax =   8.10046474342130E-14  4.99167367279551E-01
 cg2d: Sum(rhs),rhsMax =   5.97022431492178E-14  4.99395599616259E-01
 cg2d: Sum(rhs),rhsMax =   7.50788320402762E-14  4.99573020764016E-01
 cg2d: Sum(rhs),rhsMax =   1.56402668594069E-14  4.99699404479302E-01
 cg2d: Sum(rhs),rhsMax =   6.43513020648356E-14  4.99772840480769E-01
 cg2d: Sum(rhs),rhsMax =   6.58015308907522E-14  4.99790634390946E-01
 cg2d: Sum(rhs),rhsMax =   6.74182931703626E-14  4.99753353087215E-01
 cg2d: Sum(rhs),rhsMax =  -3.90451559972860E-14  4.99659339755952E-01
 cg2d: Sum(rhs),rhsMax =   1.21222476501259E-14  4.99510493580657E-01
 cg2d: Sum(rhs),rhsMax =  -6.72378819288610E-15  4.99309720153523E-01
 cg2d: Sum(rhs),rhsMax =  -7.66817165320788E-14  4.99060392995133E-01
 cg2d: Sum(rhs),rhsMax =  -2.93445823196237E-14  4.98766906919335E-01
 cg2d: Sum(rhs),rhsMax =  -6.88407664206636E-14  4.98432626341650E-01
 cg2d: Sum(rhs),rhsMax =  -9.67420588082746E-14  4.98066440798764E-01
 cg2d: Sum(rhs),rhsMax =  -1.85698678656365E-13  4.97675824936753E-01
 cg2d: Sum(rhs),rhsMax =   1.23005772234563E-13  4.97267323418017E-01
 cg2d: Sum(rhs),rhsMax =  -7.67511054711179E-14  4.96848368934975E-01
 cg2d: Sum(rhs),rhsMax =   1.05249142734465E-13  4.96426335238541E-01
 cg2d: Sum(rhs),rhsMax =  -3.37022076912774E-14  4.96009013729511E-01
 cg2d: Sum(rhs),rhsMax =   7.57727214306669E-14  4.95603774956067E-01
 cg2d: Sum(rhs),rhsMax =   2.64024913043670E-14  4.95219641490234E-01
 cg2d: Sum(rhs),rhsMax =   4.64697724744667E-14  4.94855056804894E-01
 cg2d: Sum(rhs),rhsMax =   3.94059784802891E-14  4.94509874784822E-01
 cg2d: Sum(rhs),rhsMax =   2.51812459772793E-14  4.94191035368213E-01
 cg2d: Sum(rhs),rhsMax =  -1.12264364471315E-13  4.93904799907469E-01
 cg2d: Sum(rhs),rhsMax =   9.08162434143378E-14  4.93656935350099E-01
 cg2d: Sum(rhs),rhsMax =  -5.43592948432092E-14  4.93453002336768E-01
 cg2d: Sum(rhs),rhsMax =  -2.73253641935867E-14  4.93296542387547E-01
 cg2d: Sum(rhs),rhsMax =   5.72458747072346E-14  4.93190157863835E-01
 cg2d: Sum(rhs),rhsMax =  -1.14450116051046E-13  4.93135701567367E-01
 cg2d: Sum(rhs),rhsMax =   8.26422263955351E-15  4.93131001929608E-01
 cg2d: Sum(rhs),rhsMax =   2.27318164292001E-14  4.93177230243776E-01
 cg2d: Sum(rhs),rhsMax =  -1.34600663947992E-13  4.93274650365613E-01
 cg2d: Sum(rhs),rhsMax =  -8.31071322870969E-14  4.93422470512759E-01
 cg2d: Sum(rhs),rhsMax =   6.98052726733067E-14  4.93619305672340E-01
 cg2d: Sum(rhs),rhsMax =  -5.74540415243519E-15  4.93862608698845E-01
 cg2d: Sum(rhs),rhsMax =  -6.28663787693995E-15  4.94148951249449E-01
 cg2d: Sum(rhs),rhsMax =   5.67046409827299E-14  4.94474074018397E-01
 cg2d: Sum(rhs),rhsMax =   9.04901154008542E-14  4.94834061991652E-01
 cg2d: Sum(rhs),rhsMax =  -3.13568615517568E-14  4.95222998292573E-01
 cg2d: Sum(rhs),rhsMax =   1.86725634954144E-14  4.95635425504241E-01
 cg2d: Sum(rhs),rhsMax =  -4.72746841673199E-14  4.96060133609341E-01
 cg2d: Sum(rhs),rhsMax =  -1.66651414890140E-13  4.96481313239067E-01
 cg2d: Sum(rhs),rhsMax =  -1.39985245617424E-13  4.96893268600928E-01
 cg2d: Sum(rhs),rhsMax =  -9.59093915398057E-14  4.97288095960195E-01
 cg2d: Sum(rhs),rhsMax =  -6.53227472113826E-14  4.97657999357131E-01
 cg2d: Sum(rhs),rhsMax =  -7.27196081129478E-15  4.97995525677955E-01
 cg2d: Sum(rhs),rhsMax =   8.11503642061950E-14  4.98295392276826E-01
 cg2d: Sum(rhs),rhsMax =  -3.58046925441613E-15  4.98551120307220E-01
 cg2d: Sum(rhs),rhsMax =  -1.26836041669520E-13  4.98758908071794E-01
 cg2d: Sum(rhs),rhsMax =  -3.53883589099269E-15  4.98917927380525E-01
 cg2d: Sum(rhs),rhsMax =   2.98996938319362E-14  4.99026965713278E-01
 cg2d: Sum(rhs),rhsMax =   1.10196574087951E-13  4.99083843152886E-01
 cg2d: Sum(rhs),rhsMax =  -2.18568219079174E-13  4.99087551123165E-01
 cg2d: Sum(rhs),rhsMax =  -5.21110932183433E-14  4.99037842654666E-01
 cg2d: Sum(rhs),rhsMax =  -1.38777878078145E-16  4.98935026209732E-01
 cg2d: Sum(rhs),rhsMax =   1.49810719385357E-14  4.98777597696137E-01
 cg2d: Sum(rhs),rhsMax =   1.50504608775748E-14  4.98566174162066E-01
 cg2d: Sum(rhs),rhsMax =   3.85108611666851E-15  4.98302836011115E-01
 cg2d: Sum(rhs),rhsMax =  -2.58751353676701E-14  4.97989799688242E-01
 cg2d: Sum(rhs),rhsMax =  -4.15154022270769E-14  4.97630995126181E-01
 cg2d: Sum(rhs),rhsMax =  -4.59424165377698E-14  4.97231098488532E-01
 cg2d: Sum(rhs),rhsMax =   5.22984433537488E-14  4.96794541942827E-01
 cg2d: Sum(rhs),rhsMax =  -4.50958714814931E-14  4.96350371487697E-01
 cg2d: Sum(rhs),rhsMax =  -4.42285097435047E-14  4.96050122245330E-01
 cg2d: Sum(rhs),rhsMax =  -6.53019305296709E-14  4.95732790276899E-01
 cg2d: Sum(rhs),rhsMax =  -9.91567938868343E-14  4.95400185193131E-01
 cg2d: Sum(rhs),rhsMax =  -4.40203429263875E-14  4.95059518054701E-01
 cg2d: Sum(rhs),rhsMax =  -4.18831636039840E-14  4.94715696791353E-01
 cg2d: Sum(rhs),rhsMax =  -1.73583369900143E-13  4.94085770293022E-01
 cg2d: Sum(rhs),rhsMax =  -3.48401862915182E-14  4.93451025594870E-01
 cg2d: Sum(rhs),rhsMax =  -3.84137166520304E-14  4.92823413219864E-01
 cg2d: Sum(rhs),rhsMax =   1.45619627467397E-13  4.92207095812374E-01
 cg2d: Sum(rhs),rhsMax =  -8.09075029195583E-15  4.91607523547528E-01
 cg2d: Sum(rhs),rhsMax =  -6.92917945244176E-14  4.91027811731561E-01
 cg2d: Sum(rhs),rhsMax =   5.14033260401447E-14  4.90472782792783E-01
 cg2d: Sum(rhs),rhsMax =   5.70654634657330E-14  4.89946905865322E-01
 cg2d: Sum(rhs),rhsMax =   1.55778168142717E-14  4.89453323161975E-01
 cg2d: Sum(rhs),rhsMax =   6.16659501240235E-14  4.88996282624521E-01
 cg2d: Sum(rhs),rhsMax =   1.29535271398140E-13  4.88579050097333E-01
 cg2d: Sum(rhs),rhsMax =  -2.08028039239139E-14  4.88203857988426E-01
 cg2d: Sum(rhs),rhsMax =  -9.86780102074647E-14  4.87872428963178E-01
 cg2d: Sum(rhs),rhsMax =  -1.51961776495568E-15  4.87585986884621E-01
 cg2d: Sum(rhs),rhsMax =   1.31276933768021E-13  4.87344361785005E-01
 cg2d: Sum(rhs),rhsMax =  -5.38596944821279E-14  4.87147570220342E-01
 cg2d: Sum(rhs),rhsMax =  -4.54497550705923E-14  4.86994674828487E-01
 cg2d: Sum(rhs),rhsMax =  -2.01436090030427E-14  4.86884096943296E-01
 cg2d: Sum(rhs),rhsMax =  -6.63358257213531E-14  4.86810881257241E-01
 cg2d: Sum(rhs),rhsMax =  -7.79099007530704E-14  4.86771830957377E-01
 cg2d: Sum(rhs),rhsMax =  -1.49054379949831E-13  4.86763950790269E-01
 cg2d: Sum(rhs),rhsMax =   5.44148059944405E-14  4.86783805061321E-01
 cg2d: Sum(rhs),rhsMax =   2.82412981889024E-14  4.86827777308753E-01
 cg2d: Sum(rhs),rhsMax =   9.81575931646717E-14  4.86891823351735E-01
 cg2d: Sum(rhs),rhsMax =  -6.90975054951082E-14  4.86971553023571E-01
 cg2d: Sum(rhs),rhsMax =   8.89843754237063E-14  4.87062400721925E-01
 cg2d: Sum(rhs),rhsMax =  -8.63892291036450E-14  4.87159801660714E-01
 cg2d: Sum(rhs),rhsMax =  -2.28567165194704E-14  4.87259012823015E-01
 cg2d: Sum(rhs),rhsMax =   2.82274204010946E-14  4.87355120608513E-01
 cg2d: Sum(rhs),rhsMax =   1.77358128183869E-14  4.87442843249951E-01
 cg2d: Sum(rhs),rhsMax =  -1.75692793646931E-14  4.87516637803224E-01
 cg2d: Sum(rhs),rhsMax =  -1.35461086792077E-13  4.87571643463026E-01
 cg2d: Sum(rhs),rhsMax =  -7.50788320402762E-14  4.87603739953035E-01
 cg2d: Sum(rhs),rhsMax =   7.79099007530704E-14  4.87608689466438E-01
 cg2d: Sum(rhs),rhsMax =   1.32033273203547E-13  4.87583086335243E-01
 cg2d: Sum(rhs),rhsMax =  -1.97758476261356E-14  4.87524578877971E-01
 cg2d: Sum(rhs),rhsMax =  -6.05071548420710E-15  4.87430531676807E-01
 cg2d: Sum(rhs),rhsMax =  -5.42621503285545E-14  4.87298923728231E-01
 cg2d: Sum(rhs),rhsMax =   9.25509668903146E-14  4.87128196619382E-01
 cg2d: Sum(rhs),rhsMax =  -1.12965192755610E-14  4.86917196790208E-01
 cg2d: Sum(rhs),rhsMax =  -1.37403977085171E-13  4.86665017330092E-01
 cg2d: Sum(rhs),rhsMax =  -1.58206781009085E-14  4.86371691476537E-01
 cg2d: Sum(rhs),rhsMax =  -1.17128529097954E-14  4.86037961987518E-01
 cg2d: Sum(rhs),rhsMax =  -1.87183601951801E-13  4.85664265826433E-01
 cg2d: Sum(rhs),rhsMax =  -3.30707683460219E-14  4.85252101934059E-01
 cg2d: Sum(rhs),rhsMax =  -4.76563233320348E-14  4.84804191865886E-01
 cg2d: Sum(rhs),rhsMax =  -7.06795733051990E-14  4.84323092472430E-01
 cg2d: Sum(rhs),rhsMax =   8.79712969137358E-14  4.83812506409930E-01
 cg2d: Sum(rhs),rhsMax =  -9.82408598915185E-14  4.83276738671723E-01
 cg2d: Sum(rhs),rhsMax =  -5.88973314563646E-14  4.82721096626776E-01
 cg2d: Sum(rhs),rhsMax =   4.03982403085479E-14  4.82150762762039E-01
 cg2d: Sum(rhs),rhsMax =   1.69309011255336E-14  4.81571207131020E-01
 cg2d: Sum(rhs),rhsMax =  -7.65915109113280E-14  4.80988039056738E-01
 cg2d: Sum(rhs),rhsMax =  -1.22402088464924E-14  4.80406748112572E-01
 cg2d: Sum(rhs),rhsMax =  -9.46465128492946E-15  4.79833180022518E-01
 cg2d: Sum(rhs),rhsMax =  -6.84174938925253E-14  4.79273167222638E-01
 cg2d: Sum(rhs),rhsMax =  -2.46469511466785E-14  4.78733019355475E-01
 cg2d: Sum(rhs),rhsMax =  -6.53505027869983E-14  4.78217283220211E-01
 cg2d: Sum(rhs),rhsMax =   9.80188152865935E-14  4.77730950637880E-01
 cg2d: Sum(rhs),rhsMax =  -3.51663143050018E-14  4.77277417475538E-01
 cg2d: Sum(rhs),rhsMax =   1.58706381370166E-13  4.76860333576234E-01
 cg2d: Sum(rhs),rhsMax =   1.44745326835505E-14  4.76482583171425E-01
 cg2d: Sum(rhs),rhsMax =  -1.98591143529825E-14  4.76146917155804E-01
 cg2d: Sum(rhs),rhsMax =   1.21014309684142E-14  4.75854810822585E-01
 cg2d: Sum(rhs),rhsMax =  -7.25669524470618E-14  4.75599755153646E-01
 cg2d: Sum(rhs),rhsMax =   6.03683769639929E-15  4.75379228139975E-01
 cg2d: Sum(rhs),rhsMax =   1.12979070543417E-13  4.75192148303372E-01
 cg2d: Sum(rhs),rhsMax =   2.40502062709425E-14  4.75037253769674E-01
 cg2d: Sum(rhs),rhsMax =   1.61884394778156E-13  4.74912709519040E-01
 cg2d: Sum(rhs),rhsMax =   1.23651089367627E-14  4.74815118067850E-01
 cg2d: Sum(rhs),rhsMax =  -7.60780327624389E-14  4.74739661914950E-01
 cg2d: Sum(rhs),rhsMax =   4.98212582300539E-15  4.74683287217058E-01
 cg2d: Sum(rhs),rhsMax =  -1.18710596908045E-13  4.74642481905751E-01
 cg2d: Sum(rhs),rhsMax =  -1.84838255812281E-13  4.74613607521174E-01
 cg2d: Sum(rhs),rhsMax =   8.06160693755942E-14  4.74592262561195E-01
 cg2d: Sum(rhs),rhsMax =   1.69031455499180E-14  4.74573356797886E-01
 cg2d: Sum(rhs),rhsMax =  -1.05873643185816E-13  4.74553688184017E-01
 cg2d: Sum(rhs),rhsMax =  -1.46771483855446E-13  4.74528439278833E-01
 cg2d: Sum(rhs),rhsMax =   3.24323901068624E-14  4.74492685356864E-01
 cg2d: Sum(rhs),rhsMax =   2.00436889308264E-13  4.74442520548386E-01
 cg2d: Sum(rhs),rhsMax =  -7.69107000309077E-14  4.74374055478510E-01
 cg2d: Sum(rhs),rhsMax =   1.64535052249448E-13  4.74283976348422E-01
 cg2d: Sum(rhs),rhsMax =   2.25389151786715E-13  4.74168817537229E-01
 cg2d: Sum(rhs),rhsMax =   1.38791755865952E-13  4.74026482116876E-01
 cg2d: Sum(rhs),rhsMax =   1.19348975147204E-14  4.73842073379252E-01
 cg2d: Sum(rhs),rhsMax =  -4.01068067645838E-14  4.73611219184555E-01
 cg2d: Sum(rhs),rhsMax =   1.06234465668820E-13  4.73331384056617E-01
 cg2d: Sum(rhs),rhsMax =  -5.64825963778048E-15  4.73001695190624E-01
 cg2d: Sum(rhs),rhsMax =   1.46771483855446E-13  4.72621475890457E-01
 cg2d: Sum(rhs),rhsMax =   6.86395384974503E-14  4.72191450864242E-01
 cg2d: Sum(rhs),rhsMax =   1.76220149583628E-13  4.71713356612127E-01
 cg2d: Sum(rhs),rhsMax =   4.11753964257855E-14  4.71189017440276E-01
 cg2d: Sum(rhs),rhsMax =   9.89486270697171E-15  4.70621929635852E-01
 cg2d: Sum(rhs),rhsMax =   2.81441536742477E-14  4.70016033332246E-01
 cg2d: Sum(rhs),rhsMax =  -1.40817912885893E-13  4.69374895351898E-01
 cg2d: Sum(rhs),rhsMax =   1.18044463093270E-13  4.68703385272519E-01
 cg2d: Sum(rhs),rhsMax =   8.41549052665869E-14  4.68006676372818E-01
 cg2d: Sum(rhs),rhsMax =   6.06459327201492E-15  4.67290100611612E-01
 cg2d: Sum(rhs),rhsMax =   1.15185638804860E-15  4.66559412437553E-01
 cg2d: Sum(rhs),rhsMax =   1.27953203588049E-13  4.65820558656130E-01
 cg2d: Sum(rhs),rhsMax =  -1.77774461818103E-13  4.65079475776258E-01
 cg2d: Sum(rhs),rhsMax =  -1.22665766433272E-13  4.64344802090658E-01
 cg2d: Sum(rhs),rhsMax =  -2.58959520493818E-14  4.63622583903589E-01
 cg2d: Sum(rhs),rhsMax =   1.38916655956223E-14  4.62917576702928E-01
 cg2d: Sum(rhs),rhsMax =   1.39402378529496E-13  4.62234534337252E-01
 cg2d: Sum(rhs),rhsMax =   1.75970349403087E-14  4.61577523211576E-01
 cg2d: Sum(rhs),rhsMax =  -1.62619917531970E-13  4.60949353552219E-01
 cg2d: Sum(rhs),rhsMax =  -1.61148872024341E-13  4.60353027908449E-01
 cg2d: Sum(rhs),rhsMax =  -6.22141227424322E-14  4.59790723815380E-01
 cg2d: Sum(rhs),rhsMax =   1.27814425709971E-14  4.59264975728739E-01
 cg2d: Sum(rhs),rhsMax =  -2.58126853225349E-15  4.58776227201065E-01
 cg2d: Sum(rhs),rhsMax =  -8.89149864846672E-14  4.58319091291325E-01
 cg2d: Sum(rhs),rhsMax =  -8.87068196675500E-14  4.57889635548106E-01
 cg2d: Sum(rhs),rhsMax =  -5.37209166040498E-14  4.57487063167776E-01
 cg2d: Sum(rhs),rhsMax =   2.85049761572509E-14  4.57195623865506E-01
 cg2d: Sum(rhs),rhsMax =  -1.73069891751254E-13  4.56931113565108E-01
 cg2d: Sum(rhs),rhsMax =   7.20673520859805E-14  4.56689361042134E-01
 cg2d: Sum(rhs),rhsMax =   1.02293173931400E-13  4.56468714968302E-01
 cg2d: Sum(rhs),rhsMax =  -1.52655665885959E-16  4.56265194373277E-01
 cg2d: Sum(rhs),rhsMax =   2.80331313717852E-14  4.56075531040149E-01
 cg2d: Sum(rhs),rhsMax =  -7.65637553357124E-14  4.55898227641500E-01
 cg2d: Sum(rhs),rhsMax =  -1.34767197401686E-13  4.55729338307633E-01
 cg2d: Sum(rhs),rhsMax =   7.91033905045424E-16  4.55564799749517E-01
 cg2d: Sum(rhs),rhsMax =   5.46646061749811E-14  4.55400551823155E-01
 cg2d: Sum(rhs),rhsMax =   3.37785355242204E-14  4.55232786865503E-01
 cg2d: Sum(rhs),rhsMax =  -6.60860255408124E-14  4.55057479771126E-01
 cg2d: Sum(rhs),rhsMax =   5.30270272136590E-14  4.54870555723101E-01
 cg2d: Sum(rhs),rhsMax =   1.03042574473022E-13  4.54669665329730E-01
 cg2d: Sum(rhs),rhsMax =   1.01030295240889E-14  4.54445452207176E-01
 cg2d: Sum(rhs),rhsMax =   6.78207490167893E-14  4.54189809736739E-01
 cg2d: Sum(rhs),rhsMax =   6.30051566474776E-15  4.53902352222891E-01
 cg2d: Sum(rhs),rhsMax =   3.60822483003176E-14  4.53583087386697E-01
 cg2d: Sum(rhs),rhsMax =   2.49800180540660E-16  4.53232745035638E-01
 cg2d: Sum(rhs),rhsMax =  -1.78079773149875E-13  4.52852854407607E-01
 cg2d: Sum(rhs),rhsMax =  -2.13717932240343E-15  4.52443477923887E-01
 cg2d: Sum(rhs),rhsMax =   4.86555240541975E-14  4.52008736015768E-01
 cg2d: Sum(rhs),rhsMax =  -1.16892606705221E-13  4.51552360401547E-01
 cg2d: Sum(rhs),rhsMax =  -8.36691826933134E-14  4.51077847723229E-01
 cg2d: Sum(rhs),rhsMax =  -1.51684220739412E-14  4.50585463861454E-01
 cg2d: Sum(rhs),rhsMax =  -1.07414077632484E-14  4.50075581241494E-01
 cg2d: Sum(rhs),rhsMax =  -2.73253641935867E-14  4.49551590120705E-01
 cg2d: Sum(rhs),rhsMax =   1.89126492244895E-13  4.49017522457729E-01
 cg2d: Sum(rhs),rhsMax =  -2.15522044655359E-13  4.48476883647105E-01
 cg2d: Sum(rhs),rhsMax =  -4.89192020225460E-14  4.47933593467193E-01
 cg2d: Sum(rhs),rhsMax =  -8.18789480661053E-14  4.47391320583654E-01
 cg2d: Sum(rhs),rhsMax =   1.43496325932801E-13  4.46853204392335E-01
 cg2d: Sum(rhs),rhsMax =  -1.88321580552042E-14  4.46322599351641E-01
 cg2d: Sum(rhs),rhsMax =  -2.02615701994091E-15  4.45802408223455E-01
 cg2d: Sum(rhs),rhsMax =   9.91151605234109E-14  4.45294682780188E-01
 cg2d: Sum(rhs),rhsMax =   6.36990460378684E-15  4.44801829287525E-01
 cg2d: Sum(rhs),rhsMax =   1.45980449950400E-13  4.44325709982238E-01
 cg2d: Sum(rhs),rhsMax =   1.36696209906972E-13  4.43867873319064E-01
 cg2d: Sum(rhs),rhsMax =   5.86475312758239E-14  4.43429429511633E-01
 cg2d: Sum(rhs),rhsMax =  -2.24889551425633E-13  4.43010673175913E-01
 cg2d: Sum(rhs),rhsMax =   1.86670123802912E-13  4.42611795925570E-01
 cg2d: Sum(rhs),rhsMax =  -1.96218041814689E-13  4.42232759499822E-01
 cg2d: Sum(rhs),rhsMax =   4.15639744844043E-14  4.41872827793556E-01
 cg2d: Sum(rhs),rhsMax =   8.07270916780567E-14  4.41530685178473E-01
 cg2d: Sum(rhs),rhsMax =  -1.91097138113605E-13  4.41205336651457E-01
 cg2d: Sum(rhs),rhsMax =   7.89923682020799E-14  4.40895831973609E-01
 cg2d: Sum(rhs),rhsMax =  -1.73139280690293E-13  4.40599560055845E-01
 cg2d: Sum(rhs),rhsMax =   2.17367790433798E-13  4.40313785568345E-01
 cg2d: Sum(rhs),rhsMax =  -2.52783904919340E-13  4.40036178427802E-01
 cg2d: Sum(rhs),rhsMax =  -1.16420761919755E-13  4.39764049445972E-01
 cg2d: Sum(rhs),rhsMax =  -3.51968454381790E-13  4.39494966169856E-01
 cg2d: Sum(rhs),rhsMax =   8.21148704588381E-14  4.39226387317364E-01
 cg2d: Sum(rhs),rhsMax =  -4.33958424750358E-14  4.38955942632695E-01
 cg2d: Sum(rhs),rhsMax =   1.22291066162461E-13  4.38681162387917E-01
 cg2d: Sum(rhs),rhsMax =  -3.99957844621213E-14  4.38399715682392E-01
 cg2d: Sum(rhs),rhsMax =   6.66966482043563E-14  4.38110025177939E-01
 cg2d: Sum(rhs),rhsMax =  -7.68829444552921E-15  4.37810608096263E-01
 cg2d: Sum(rhs),rhsMax =  -1.84158244209698E-14  4.37499710092211E-01
 cg2d: Sum(rhs),rhsMax =   7.58837437331294E-14  4.37175663754474E-01
 cg2d: Sum(rhs),rhsMax =  -3.11903280980630E-13  4.36837631964510E-01
 cg2d: Sum(rhs),rhsMax =  -2.98788771502245E-13  4.36484439762181E-01
 cg2d: Sum(rhs),rhsMax =   4.06619182768964E-14  4.36114655846389E-01
 cg2d: Sum(rhs),rhsMax =  -2.25541807452601E-13  4.35727806245238E-01
 cg2d: Sum(rhs),rhsMax =  -7.55645546135497E-14  4.35323219767171E-01
 cg2d: Sum(rhs),rhsMax =  -2.45151121625042E-13  4.34900145016511E-01
 cg2d: Sum(rhs),rhsMax =  -1.58983937126322E-13  4.34458038141678E-01
 cg2d: Sum(rhs),rhsMax =  -2.15327755626049E-13  4.33997414515468E-01
 cg2d: Sum(rhs),rhsMax =   1.44453893291541E-13  4.33518456121969E-01
 cg2d: Sum(rhs),rhsMax =   9.52571355128384E-14  4.33019184823854E-01
 cg2d: Sum(rhs),rhsMax =  -1.86378690258948E-14  4.32498081936298E-01
 cg2d: Sum(rhs),rhsMax =   3.41116024316079E-14  4.31956559943609E-01
 cg2d: Sum(rhs),rhsMax =  -1.24317223182402E-13  4.31411041470103E-01
 cg2d: Sum(rhs),rhsMax =   2.27456942170079E-14  4.30903604512322E-01
 cg2d: Sum(rhs),rhsMax =   5.91748872125208E-14  4.30381035272962E-01
 cg2d: Sum(rhs),rhsMax =   9.17044218340379E-14  4.29845119620057E-01
 cg2d: Sum(rhs),rhsMax =  -1.20403687020598E-13  4.29297699815307E-01
 cg2d: Sum(rhs),rhsMax =   9.47159017883337E-14  4.28740481216286E-01
 cg2d: Sum(rhs),rhsMax =  -4.95298246860898E-14  4.28175397610354E-01
 cg2d: Sum(rhs),rhsMax =   1.01058050816505E-13  4.27604311107656E-01
 cg2d: Sum(rhs),rhsMax =   4.91967577787022E-14  4.27029446129474E-01
 cg2d: Sum(rhs),rhsMax =  -1.50934820197790E-13  4.26452394142951E-01
 cg2d: Sum(rhs),rhsMax =  -1.09925957225698E-13  4.25831395440658E-01
 cg2d: Sum(rhs),rhsMax =  -2.73586708843254E-13  4.25187360861425E-01
 cg2d: Sum(rhs),rhsMax =  -6.31439345255558E-14  4.24548707243729E-01
 cg2d: Sum(rhs),rhsMax =  -1.43773881688958E-14  4.23912600389698E-01
 cg2d: Sum(rhs),rhsMax =  -2.20934381900406E-14  4.23278203670155E-01
 cg2d: Sum(rhs),rhsMax =  -9.58261248129588E-14  4.22646491783070E-01
 cg2d: Sum(rhs),rhsMax =  -1.26149091173033E-13  4.22018230530715E-01
 cg2d: Sum(rhs),rhsMax =   8.28087598492289E-14  4.21394096444032E-01
 cg2d: Sum(rhs),rhsMax =  -1.53169144034848E-13  4.20775223195289E-01
 cg2d: Sum(rhs),rhsMax =  -1.42511002998447E-13  4.20162175017658E-01
 cg2d: Sum(rhs),rhsMax =   1.00294772487075E-13  4.19555602329917E-01
 cg2d: Sum(rhs),rhsMax =   8.80823192161984E-14  4.18954563298534E-01
 cg2d: Sum(rhs),rhsMax =  -9.76163594401669E-14  4.18360060834043E-01
 cg2d: Sum(rhs),rhsMax =  -2.89490653671010E-14  4.17774662639399E-01
 cg2d: Sum(rhs),rhsMax =   2.04822270255534E-13  4.17197412308234E-01
 cg2d: Sum(rhs),rhsMax =   1.82881487731379E-13  4.16628885378154E-01
 cg2d: Sum(rhs),rhsMax =   5.70099523145018E-14  4.16069533315159E-01
 cg2d: Sum(rhs),rhsMax =   1.11730069640714E-13  4.15519721222636E-01
 cg2d: Sum(rhs),rhsMax =  -1.08857367564497E-13  4.14979123378337E-01
 cg2d: Sum(rhs),rhsMax =   1.01502140026355E-13  4.14447966044380E-01
 cg2d: Sum(rhs),rhsMax =   1.34559030584569E-13  4.13926327645161E-01
 cg2d: Sum(rhs),rhsMax =  -6.43374242770278E-14  4.13912907182632E-01
 cg2d: Sum(rhs),rhsMax =   2.37587727269783E-14  4.14008805301449E-01
 cg2d: Sum(rhs),rhsMax =  -1.61690105748846E-13  4.14109472889096E-01
 cg2d: Sum(rhs),rhsMax =   1.26301746838919E-13  4.14218319340988E-01
 cg2d: Sum(rhs),rhsMax =  -1.93692284433666E-13  4.14338224739355E-01
 cg2d: Sum(rhs),rhsMax =   1.94913529760754E-13  4.14472285221966E-01
 cg2d: Sum(rhs),rhsMax =  -5.31380495161216E-14  4.14623352858578E-01
 cg2d: Sum(rhs),rhsMax =   1.50504608775748E-13  4.14793608751339E-01
 cg2d: Sum(rhs),rhsMax =   2.28664309709359E-13  4.14985346754240E-01
 cg2d: Sum(rhs),rhsMax =  -1.10064735103776E-13  4.15199755279707E-01
 cg2d: Sum(rhs),rhsMax =   1.00197627972420E-13  4.15438714711623E-01
 cg2d: Sum(rhs),rhsMax =   1.38264399929255E-13  4.15703810984759E-01
 cg2d: Sum(rhs),rhsMax =  -1.91235915991683E-13  4.15996473483183E-01
 cg2d: Sum(rhs),rhsMax =  -2.52714515980301E-14  4.16317257339704E-01
 cg2d: Sum(rhs),rhsMax =  -7.87286902337314E-14  4.16666050490132E-01
 cg2d: Sum(rhs),rhsMax =   5.56082957459125E-14  4.17042946993285E-01
 cg2d: Sum(rhs),rhsMax =  -2.42139641670747E-13  4.17449219483080E-01
 cg2d: Sum(rhs),rhsMax =   1.57859836313889E-13  4.17882786194617E-01
 cg2d: Sum(rhs),rhsMax =  -1.47618028911722E-13  4.18341075471621E-01
 cg2d: Sum(rhs),rhsMax =   1.29604660337179E-13  4.18822757512609E-01
 cg2d: Sum(rhs),rhsMax =   2.06917816214514E-14  4.19325806602363E-01
 cg2d: Sum(rhs),rhsMax =  -9.75469705011278E-14  4.19844989061503E-01
 cg2d: Sum(rhs),rhsMax =   1.11022302462516E-16  4.20379039096887E-01
 cg2d: Sum(rhs),rhsMax =  -7.73270336651422E-14  4.20924535983384E-01
 cg2d: Sum(rhs),rhsMax =   2.18616791336501E-13  4.21478037844865E-01
 cg2d: Sum(rhs),rhsMax =   1.17961196366423E-13  4.22035820872457E-01
 cg2d: Sum(rhs),rhsMax =  -6.20614670765463E-14  4.22594259982005E-01
 cg2d: Sum(rhs),rhsMax =   6.98746616123458E-14  4.23149028463507E-01
 cg2d: Sum(rhs),rhsMax =   2.95319324550292E-14  4.23697144796259E-01
 cg2d: Sum(rhs),rhsMax =   3.08086889333481E-15  4.24235471824489E-01
 cg2d: Sum(rhs),rhsMax =   8.57786064401012E-14  4.24760966057206E-01
 cg2d: Sum(rhs),rhsMax =  -7.17204073907851E-14  4.25271334493539E-01
 cg2d: Sum(rhs),rhsMax =   1.18557941242159E-13  4.25765124854537E-01
 cg2d: Sum(rhs),rhsMax =   3.54577478489659E-14  4.26240061740424E-01
 cg2d: Sum(rhs),rhsMax =  -3.03923552991137E-14  4.26695034705196E-01
 cg2d: Sum(rhs),rhsMax =   6.63080701457375E-14  4.27128343765351E-01
 cg2d: Sum(rhs),rhsMax =  -2.79096190602957E-13  4.27539689798264E-01
 cg2d: Sum(rhs),rhsMax =   1.04055652982993E-13  4.27927792756851E-01
 cg2d: Sum(rhs),rhsMax =   5.73430192218893E-14  4.28294571569809E-01
 cg2d: Sum(rhs),rhsMax =  -1.18252629910387E-13  4.28638369700805E-01
 cg2d: Sum(rhs),rhsMax =   1.13339893026421E-13  4.28756846763861E-01
 cg2d: Sum(rhs),rhsMax =  -1.30825905664267E-13  4.28845873677754E-01
 cg2d: Sum(rhs),rhsMax =  -1.28258514919821E-13  4.28916528961455E-01
 cg2d: Sum(rhs),rhsMax =   5.84393644587067E-14  4.28965109507794E-01
 cg2d: Sum(rhs),rhsMax =  -6.69603261727048E-14  4.28996365906522E-01
 cg2d: Sum(rhs),rhsMax =  -1.87447279920150E-13  4.29011927275846E-01
 cg2d: Sum(rhs),rhsMax =  -3.11056735924353E-13  4.29009443634016E-01
 cg2d: Sum(rhs),rhsMax =  -2.47815656884143E-13  4.28991271187491E-01
 cg2d: Sum(rhs),rhsMax =   2.26749174991880E-13  4.28960341243151E-01
 cg2d: Sum(rhs),rhsMax =   4.44089209850063E-15  4.28919741398644E-01
 cg2d: Sum(rhs),rhsMax =  -7.07767178198537E-15  4.28872501521610E-01
 cg2d: Sum(rhs),rhsMax =   7.17897963298242E-14  4.28821913552842E-01
 cg2d: Sum(rhs),rhsMax =   8.64447402548763E-14  4.28771166501211E-01
 cg2d: Sum(rhs),rhsMax =   1.20098375688826E-13  4.28723574347060E-01
 cg2d: Sum(rhs),rhsMax =  -1.02834407655905E-13  4.28682411676347E-01
 cg2d: Sum(rhs),rhsMax =  -1.63272173558937E-13  4.28650793032427E-01
 cg2d: Sum(rhs),rhsMax =   1.52933221642115E-14  4.28631628285224E-01
 cg2d: Sum(rhs),rhsMax =  -7.52176099183544E-14  4.28627485749535E-01
 cg2d: Sum(rhs),rhsMax =   9.41052791247898E-14  4.28636073020003E-01
 cg2d: Sum(rhs),rhsMax =  -2.77555756156289E-14  4.28990250771673E-01
 cg2d: Sum(rhs),rhsMax =   1.84019466331620E-14  4.29252055833787E-01
 cg2d: Sum(rhs),rhsMax =  -1.73611125475759E-14  4.29448692495007E-01
 cg2d: Sum(rhs),rhsMax =   1.69697589313955E-13  4.29605294029077E-01
 cg2d: Sum(rhs),rhsMax =  -9.67836921716980E-14  4.29720873511095E-01
 cg2d: Sum(rhs),rhsMax =   3.05491743013420E-13  4.29797676855968E-01
 cg2d: Sum(rhs),rhsMax =  -1.81285542133480E-13  4.29838685256804E-01
 cg2d: Sum(rhs),rhsMax =  -1.49116829994966E-13  4.29846574371852E-01
 cg2d: Sum(rhs),rhsMax =  -1.76011982766511E-13  4.29827076145149E-01
 cg2d: Sum(rhs),rhsMax =  -6.44484465794903E-14  4.29784205737514E-01
 cg2d: Sum(rhs),rhsMax =   2.83037482340376E-13  4.29774225701191E-01
 cg2d: Sum(rhs),rhsMax =  -1.00336405850499E-13  4.29977137698606E-01
 cg2d: Sum(rhs),rhsMax =  -8.81100747918140E-14  4.30196206065172E-01
 cg2d: Sum(rhs),rhsMax =  -9.06219543850284E-14  4.30430360103740E-01
 cg2d: Sum(rhs),rhsMax =  -4.98906471690930E-14  4.30678553273680E-01
 cg2d: Sum(rhs),rhsMax =  -1.52294843402956E-13  4.30940985542141E-01
 cg2d: Sum(rhs),rhsMax =   2.51049181443364E-14  4.31215369332012E-01
 cg2d: Sum(rhs),rhsMax =   4.94465579592429E-14  4.31500368413880E-01
 cg2d: Sum(rhs),rhsMax =  -1.14686038443779E-13  4.31794219126264E-01
 cg2d: Sum(rhs),rhsMax =  -8.24618151540335E-14  4.32094909639124E-01
 cg2d: Sum(rhs),rhsMax =   2.14564477296619E-13  4.32399870994413E-01
 cg2d: Sum(rhs),rhsMax =   1.78329573330416E-14  4.32705713823313E-01
 cg2d: Sum(rhs),rhsMax =  -1.42247325030098E-13  4.33010002260791E-01
 cg2d: Sum(rhs),rhsMax =   1.30728761149612E-13  4.33310176808607E-01
 cg2d: Sum(rhs),rhsMax =   1.02487462960710E-13  4.33602774084425E-01
 cg2d: Sum(rhs),rhsMax =  -2.17464934948453E-14  4.33884563001218E-01
 cg2d: Sum(rhs),rhsMax =  -8.17124146124115E-14  4.34153173322921E-01
 cg2d: Sum(rhs),rhsMax =   9.50906020591447E-14  4.34406048170213E-01
 cg2d: Sum(rhs),rhsMax =   1.38555833473220E-13  4.34640587900663E-01
 cg2d: Sum(rhs),rhsMax =  -1.68504099562483E-13  4.34854247959635E-01
 cg2d: Sum(rhs),rhsMax =  -1.21874732528227E-13  4.35043485699738E-01
 cg2d: Sum(rhs),rhsMax =   6.93473056756488E-14  4.35205566234585E-01
 cg2d: Sum(rhs),rhsMax =   2.43416398149066E-14  4.35339067236625E-01
 cg2d: Sum(rhs),rhsMax =   1.30867539027690E-14  4.35442933418662E-01
 cg2d: Sum(rhs),rhsMax =  -1.37292954782708E-13  4.35515837497525E-01
 cg2d: Sum(rhs),rhsMax =  -1.23220877945585E-13  4.35557101657510E-01
 cg2d: Sum(rhs),rhsMax =  -3.69149155687865E-15  4.35565235199617E-01
 cg2d: Sum(rhs),rhsMax =  -1.16601173161257E-13  4.35538302347563E-01
 cg2d: Sum(rhs),rhsMax =   1.83866810665734E-13  4.35475435479645E-01
 cg2d: Sum(rhs),rhsMax =   1.14630527292547E-13  4.35375195379473E-01
 cg2d: Sum(rhs),rhsMax =  -2.21780926956683E-13  4.35237673975735E-01
 cg2d: Sum(rhs),rhsMax =   1.17822418488345E-13  4.35063668317765E-01
 cg2d: Sum(rhs),rhsMax =   2.22280527317764E-13  4.34854094019861E-01
 cg2d: Sum(rhs),rhsMax =   3.09335890236184E-14  4.34759113407282E-01
 cg2d: Sum(rhs),rhsMax =   1.35280675550575E-13  4.34996039228369E-01
 cg2d: Sum(rhs),rhsMax =   1.74402159380804E-13  4.35230935469254E-01
 cg2d: Sum(rhs),rhsMax =   3.18078896555107E-14  4.35415682504585E-01
 cg2d: Sum(rhs),rhsMax =   3.06685232764892E-13  4.35548883778306E-01
 cg2d: Sum(rhs),rhsMax =  -8.93313201189017E-14  4.35639143192858E-01
 cg2d: Sum(rhs),rhsMax =  -1.33865141194178E-13  4.35827900792806E-01
 cg2d: Sum(rhs),rhsMax =  -1.29479760246909E-13  4.36023052987350E-01
 cg2d: Sum(rhs),rhsMax =  -4.81420459053084E-14  4.36226543219766E-01
 cg2d: Sum(rhs),rhsMax =   1.45605749679589E-13  4.36438538732144E-01
 cg2d: Sum(rhs),rhsMax =   4.56579218877096E-14  4.36659890590319E-01
 cg2d: Sum(rhs),rhsMax =  -5.25690602160012E-14  4.36891718201277E-01
 cg2d: Sum(rhs),rhsMax =  -3.29056226711089E-13  4.37133893189558E-01
 cg2d: Sum(rhs),rhsMax =   4.72122341221848E-14  4.37386735138372E-01
 cg2d: Sum(rhs),rhsMax =  -1.06095687790742E-13  4.37650788170435E-01
 cg2d: Sum(rhs),rhsMax =  -6.96526170074208E-14  4.37925590596827E-01
 cg2d: Sum(rhs),rhsMax =  -2.06931694002321E-13  4.38211890568343E-01
 cg2d: Sum(rhs),rhsMax =  -2.95943825001643E-13  4.38509188331165E-01
 cg2d: Sum(rhs),rhsMax =  -5.94385651808693E-14  4.38816942972469E-01
 cg2d: Sum(rhs),rhsMax =   3.88994392253039E-14  4.39134167790165E-01
 cg2d: Sum(rhs),rhsMax =  -1.07344688693445E-13  4.39459846724405E-01
 cg2d: Sum(rhs),rhsMax =  -1.42955092208297E-13  4.39789350377937E-01
 cg2d: Sum(rhs),rhsMax =  -1.00752739484733E-14  4.40120196368833E-01
 cg2d: Sum(rhs),rhsMax =  -9.91151605234109E-14  4.40451444124885E-01
 cg2d: Sum(rhs),rhsMax =   3.74700270810990E-16  4.40783019953196E-01
 cg2d: Sum(rhs),rhsMax =   1.92110216623576E-13  4.41113797810284E-01
 cg2d: Sum(rhs),rhsMax =  -2.58654209162046E-13  4.41443221304724E-01
 cg2d: Sum(rhs),rhsMax =   1.38125622051177E-13  4.41770527987219E-01
 cg2d: Sum(rhs),rhsMax =  -1.16989751219876E-14  4.42095175526783E-01
 cg2d: Sum(rhs),rhsMax =   3.36813910095657E-14  4.42416504792065E-01
 cg2d: Sum(rhs),rhsMax =   3.50969253659628E-14  4.42733790205029E-01
 cg2d: Sum(rhs),rhsMax =  -1.11133324764978E-13  4.43046402304428E-01
 cg2d: Sum(rhs),rhsMax =  -9.86988268891764E-14  4.43353760241042E-01
 cg2d: Sum(rhs),rhsMax =   1.66894276176777E-13  4.43652000720032E-01
 cg2d: Sum(rhs),rhsMax =  -2.19282925151276E-13  4.43939817941651E-01
 cg2d: Sum(rhs),rhsMax =   1.53418944215389E-13  4.44216665938191E-01
 cg2d: Sum(rhs),rhsMax =  -7.54812878867028E-14  4.44481921732581E-01
 cg2d: Sum(rhs),rhsMax =   1.01987862599628E-13  4.44736593454123E-01
 cg2d: Sum(rhs),rhsMax =  -5.83560977318598E-14  4.44980861370766E-01
 cg2d: Sum(rhs),rhsMax =  -8.86929418797422E-14  4.45215813311128E-01
 cg2d: Sum(rhs),rhsMax =  -1.57859836313889E-13  4.45439191799792E-01
 cg2d: Sum(rhs),rhsMax =  -1.35308431126191E-14  4.45653884320670E-01
 cg2d: Sum(rhs),rhsMax =   1.09509623591464E-13  4.45859718118612E-01
 cg2d: Sum(rhs),rhsMax =  -1.76345049673898E-13  4.46057401044181E-01
 cg2d: Sum(rhs),rhsMax =   3.28764793167124E-14  4.46248421597181E-01
 cg2d: Sum(rhs),rhsMax =  -2.19047002758543E-13  4.46434593542636E-01
 cg2d: Sum(rhs),rhsMax =  -8.45018499617822E-14  4.46617751619706E-01
 cg2d: Sum(rhs),rhsMax =  -1.54265489271666E-13  4.46799410141455E-01
 cg2d: Sum(rhs),rhsMax =   8.16291478855646E-14  4.46978026844762E-01
 cg2d: Sum(rhs),rhsMax =   6.48092690624935E-14  4.47155893449781E-01
 cg2d: Sum(rhs),rhsMax =   2.51187959321442E-13  4.47334132723857E-01
 cg2d: Sum(rhs),rhsMax =   3.54022366977347E-14  4.47516197971231E-01
 cg2d: Sum(rhs),rhsMax =   1.12174158850564E-13  4.47702788576817E-01
 cg2d: Sum(rhs),rhsMax =   7.48012762841199E-15  4.47896443839458E-01
 cg2d: Sum(rhs),rhsMax =  -1.63008495590589E-13  4.48098465009290E-01
 cg2d: Sum(rhs),rhsMax =  -4.31876756579186E-14  4.48309810450019E-01
 cg2d: Sum(rhs),rhsMax =   7.34412530789541E-14  4.48532123938987E-01
 cg2d: Sum(rhs),rhsMax =  -1.62467261866084E-13  4.48766370246255E-01
 cg2d: Sum(rhs),rhsMax =   2.00256478066763E-14  4.49012754690612E-01
 cg2d: Sum(rhs),rhsMax =   1.60801927329146E-13  4.49270561191397E-01
 cg2d: Sum(rhs),rhsMax =  -1.40998324127395E-13  4.49539618897186E-01
 cg2d: Sum(rhs),rhsMax =  -7.36355421082635E-14  4.49819548931331E-01
 cg2d: Sum(rhs),rhsMax =  -1.80078174594200E-13  4.50109649911025E-01
 cg2d: Sum(rhs),rhsMax =   2.99066327258402E-14  4.50408893610716E-01
 cg2d: Sum(rhs),rhsMax =  -2.43416398149066E-14  4.50716022707528E-01
 cg2d: Sum(rhs),rhsMax =  -1.87766469039730E-13  4.51029571609802E-01
 cg2d: Sum(rhs),rhsMax =  -2.51326737199520E-14  4.51347906585195E-01
 cg2d: Sum(rhs),rhsMax =   7.46347428304261E-14  4.51669048023441E-01
 cg2d: Sum(rhs),rhsMax =  -8.97476537531361E-14  4.51990793739314E-01
 cg2d: Sum(rhs),rhsMax =   1.13895004538733E-13  4.52311178230864E-01
 cg2d: Sum(rhs),rhsMax =  -1.38750122502529E-13  4.52628485967672E-01
 cg2d: Sum(rhs),rhsMax =   1.77635683940025E-14  4.52940312855808E-01
 cg2d: Sum(rhs),rhsMax =   6.49896803039951E-14  4.53244690095630E-01
 cg2d: Sum(rhs),rhsMax =  -1.12854170453147E-13  4.53539163136140E-01
 cg2d: Sum(rhs),rhsMax =  -1.27356458712313E-13  4.53813271051190E-01
 cg2d: Sum(rhs),rhsMax =   6.85007606193722E-14  4.54073937398992E-01
 cg2d: Sum(rhs),rhsMax =  -2.52867171646187E-13  4.54319793584045E-01
 cg2d: Sum(rhs),rhsMax =  -3.49165141244612E-14  4.54549491562846E-01
 cg2d: Sum(rhs),rhsMax =   5.04180031057899E-14  4.54761858682683E-01
 cg2d: Sum(rhs),rhsMax =  -2.01297312152349E-13  4.54956043402758E-01
 cg2d: Sum(rhs),rhsMax =   4.60742555219440E-14  4.55131357526320E-01
 cg2d: Sum(rhs),rhsMax =  -1.96925808992887E-14  4.55287464498883E-01
 cg2d: Sum(rhs),rhsMax =  -2.86715096109447E-14  4.55424206213332E-01
 cg2d: Sum(rhs),rhsMax =   7.98666688339722E-14  4.55541433044316E-01
 cg2d: Sum(rhs),rhsMax =  -1.12770903726300E-13  4.55639106827813E-01
 cg2d: Sum(rhs),rhsMax =  -2.69367861349679E-14  4.55717607379812E-01
 cg2d: Sum(rhs),rhsMax =   1.48825396451002E-13  4.55777725767494E-01
 cg2d: Sum(rhs),rhsMax =   4.11615186379777E-14  4.55820362410650E-01
 cg2d: Sum(rhs),rhsMax =   5.23608933988839E-14  4.55846501720962E-01
 cg2d: Sum(rhs),rhsMax =   1.75456871254198E-13  4.55857362711743E-01
 cg2d: Sum(rhs),rhsMax =  -2.18991491607312E-14  4.55854176621364E-01
 cg2d: Sum(rhs),rhsMax =   5.68989300120393E-15  4.55837681589595E-01
 cg2d: Sum(rhs),rhsMax =   2.69229083471600E-15  4.55810581034860E-01
 cg2d: Sum(rhs),rhsMax =   7.81735787214188E-14  4.55772191054965E-01
 cg2d: Sum(rhs),rhsMax =  -1.65589764122842E-13  4.55725926230923E-01
 cg2d: Sum(rhs),rhsMax =  -2.28136953772662E-13  4.55672345852617E-01
 cg2d: Sum(rhs),rhsMax =  -2.59431365279283E-13  4.55612907337849E-01
 cg2d: Sum(rhs),rhsMax =  -1.71279657124046E-13  4.55548736059813E-01
 cg2d: Sum(rhs),rhsMax =   3.06837888430778E-14  4.55481248976952E-01
 cg2d: Sum(rhs),rhsMax =  -6.54198917260373E-14  4.55411578559511E-01
 cg2d: Sum(rhs),rhsMax =  -1.24206200879939E-14  4.55340911724207E-01
 cg2d: Sum(rhs),rhsMax =  -1.09592890318311E-13  4.55269967922862E-01
 cg2d: Sum(rhs),rhsMax =  -6.28802565572073E-14  4.55199623038920E-01
 cg2d: Sum(rhs),rhsMax =  -7.66053886991358E-14  4.55130432249620E-01
 cg2d: Sum(rhs),rhsMax =   4.31599200823030E-15  4.55062824757029E-01
 cg2d: Sum(rhs),rhsMax =  -1.18086096456693E-13  4.54997050322079E-01
 cg2d: Sum(rhs),rhsMax =   1.54182222544819E-14  4.54932931497947E-01
 cg2d: Sum(rhs),rhsMax =  -1.55167545479173E-13  4.54870014330096E-01
 cg2d: Sum(rhs),rhsMax =  -3.35426131314875E-14  4.54807735138450E-01
 cg2d: Sum(rhs),rhsMax =  -2.56877852322646E-14  4.54746299273304E-01
 cg2d: Sum(rhs),rhsMax =  -2.44401721083420E-13  4.54684523014928E-01
 cg2d: Sum(rhs),rhsMax =   6.04100103274163E-14  4.54621789741039E-01
 cg2d: Sum(rhs),rhsMax =   6.55309140284999E-14  4.54557278006017E-01
 cg2d: Sum(rhs),rhsMax =   8.75549632795014E-14  4.54337137041668E-01
 cg2d: Sum(rhs),rhsMax =  -1.06470388061553E-13  4.54111339538980E-01
 cg2d: Sum(rhs),rhsMax =  -3.82055498349132E-14  4.53882962495543E-01
 cg2d: Sum(rhs),rhsMax =  -1.19265708420357E-13  4.53649181651343E-01
 cg2d: Sum(rhs),rhsMax =  -4.46864767411626E-15  4.53411116489761E-01
 cg2d: Sum(rhs),rhsMax =  -2.08166817117217E-15  4.53169177546969E-01
 cg2d: Sum(rhs),rhsMax =   1.65922831030230E-13  4.52922769894084E-01
 cg2d: Sum(rhs),rhsMax =  -1.70488623219001E-13  4.52672190560995E-01
 cg2d: Sum(rhs),rhsMax =  -1.95565785787721E-13  4.52417739281584E-01
 cg2d: Sum(rhs),rhsMax =   1.08246744900953E-14  4.52160162237453E-01
 cg2d: Sum(rhs),rhsMax =   1.44245726474423E-13  4.51900302555524E-01
 cg2d: Sum(rhs),rhsMax =  -7.65637553357124E-14  4.51639059131973E-01
 cg2d: Sum(rhs),rhsMax =  -1.96925808992887E-14  4.51377495264963E-01
 cg2d: Sum(rhs),rhsMax =   4.97379915032070E-14  4.51116751296229E-01
 cg2d: Sum(rhs),rhsMax =  -1.52017287646800E-13  4.50858090127378E-01
 cg2d: Sum(rhs),rhsMax =   1.08010822508220E-13  4.50602464659858E-01
 cg2d: Sum(rhs),rhsMax =   1.86517468137026E-14  4.50351807626530E-01
 cg2d: Sum(rhs),rhsMax =  -1.03222985714524E-13  4.50106295632864E-01
 cg2d: Sum(rhs),rhsMax =  -8.00054467120503E-14  4.49867313752262E-01
 cg2d: Sum(rhs),rhsMax =  -3.86496390447633E-14  4.49635034967131E-01
 cg2d: Sum(rhs),rhsMax =   2.04697370165263E-14  4.49410177780427E-01
 cg2d: Sum(rhs),rhsMax =  -1.64174229766445E-14  4.49192757549105E-01
 cg2d: Sum(rhs),rhsMax =   4.38121761092702E-14  4.48983183194761E-01
 cg2d: Sum(rhs),rhsMax =  -4.54636328584002E-14  4.48781978271942E-01
 cg2d: Sum(rhs),rhsMax =   1.68476343986868E-14  4.48589677326899E-01
 cg2d: Sum(rhs),rhsMax =  -1.60829682904762E-13  4.48406715251082E-01
 cg2d: Sum(rhs),rhsMax =  -2.25694463118487E-13  4.48233612839679E-01
 cg2d: Sum(rhs),rhsMax =  -3.94545507376165E-14  4.48069848404468E-01
 cg2d: Sum(rhs),rhsMax =  -9.32309784928975E-14  4.47915944118816E-01
 cg2d: Sum(rhs),rhsMax =  -2.00159333552108E-13  4.47771621390957E-01
 cg2d: Sum(rhs),rhsMax =   2.36893837879393E-14  4.47636526693533E-01
 cg2d: Sum(rhs),rhsMax =  -5.68989300120393E-14  4.47510269031269E-01
 cg2d: Sum(rhs),rhsMax =   1.12770903726300E-13  4.47391608278552E-01
 cg2d: Sum(rhs),rhsMax =  -6.25749452254354E-14  4.47279376046894E-01
 cg2d: Sum(rhs),rhsMax =   1.38167255414601E-13  4.47172479592954E-01
 cg2d: Sum(rhs),rhsMax =  -1.65159552700800E-13  4.47500141641744E-01
 cg2d: Sum(rhs),rhsMax =   1.94844140821715E-14  4.47846952631980E-01
 cg2d: Sum(rhs),rhsMax =   7.31359417471822E-15  4.48167954602197E-01
 cg2d: Sum(rhs),rhsMax =  -9.37167010661710E-14  4.48460213382290E-01
 cg2d: Sum(rhs),rhsMax =   2.06612504882742E-13  4.48721439279717E-01
 cg2d: Sum(rhs),rhsMax =  -6.95693502805739E-14  4.48948568223712E-01
 cg2d: Sum(rhs),rhsMax =   8.77353745210030E-14  4.49141212597643E-01
 cg2d: Sum(rhs),rhsMax =  -2.60208521396521E-14  4.49296925533342E-01
 cg2d: Sum(rhs),rhsMax =   9.49379463932587E-14  4.49416783710997E-01
 cg2d: Sum(rhs),rhsMax =  -3.37230243729891E-15  4.49500922264843E-01
 cg2d: Sum(rhs),rhsMax =   6.44484465794903E-14  4.49549717663603E-01
 cg2d: Sum(rhs),rhsMax =  -1.10397802011164E-13  4.49564031355360E-01
 cg2d: Sum(rhs),rhsMax =  -8.86790640919344E-15  4.49545083111783E-01
 cg2d: Sum(rhs),rhsMax =  -6.80844269851377E-14  4.49494469511589E-01
 cg2d: Sum(rhs),rhsMax =   1.39555034195382E-13  4.49414199146069E-01
 cg2d: Sum(rhs),rhsMax =   7.41212646815370E-14  4.49308100627264E-01
 cg2d: Sum(rhs),rhsMax =   1.64243618705484E-13  4.49177269686778E-01
 cg2d: Sum(rhs),rhsMax =   7.11375403028569E-14  4.49024405290094E-01
 cg2d: Sum(rhs),rhsMax =   1.42427736271600E-13  4.48852508325958E-01
 cg2d: Sum(rhs),rhsMax =   1.39346867378265E-13  4.48664617349684E-01
 cg2d: Sum(rhs),rhsMax =  -4.43811654093906E-14  4.48463947876960E-01
 cg2d: Sum(rhs),rhsMax =  -1.76247905159244E-15  4.48253833925068E-01
 cg2d: Sum(rhs),rhsMax =   1.01960107024013E-13  4.48037546052955E-01
 cg2d: Sum(rhs),rhsMax =  -6.04100103274163E-14  4.47818675918482E-01
 cg2d: Sum(rhs),rhsMax =   7.45237205279636E-15  4.47604009654876E-01
 cg2d: Sum(rhs),rhsMax =  -4.94188023836273E-14  4.47392504839208E-01
 cg2d: Sum(rhs),rhsMax =  -1.25136012663063E-13  4.47186933427115E-01
 cg2d: Sum(rhs),rhsMax =   1.09343090137770E-13  4.46990073185014E-01
 cg2d: Sum(rhs),rhsMax =  -2.97789570780083E-13  4.46804325165568E-01
 cg2d: Sum(rhs),rhsMax =  -1.86184401229639E-13  4.46632151651680E-01
 cg2d: Sum(rhs),rhsMax =   6.88754608901831E-14  4.46475189880883E-01
 cg2d: Sum(rhs),rhsMax =  -1.76719749944709E-13  4.46335214524660E-01
 cg2d: Sum(rhs),rhsMax =  -1.15144005441437E-13  4.46213421537146E-01
 cg2d: Sum(rhs),rhsMax =   5.72458747072346E-14  4.46099351245747E-01
 cg2d: Sum(rhs),rhsMax =  -6.27553564669370E-14  4.45961344814492E-01
 cg2d: Sum(rhs),rhsMax =  -5.03763697423665E-15  4.45844350740914E-01
 cg2d: Sum(rhs),rhsMax =  -1.72917236085368E-14  4.45748302873916E-01
 cg2d: Sum(rhs),rhsMax =  -9.33975119465913E-15  4.45673164168304E-01
 cg2d: Sum(rhs),rhsMax =   1.54432022725359E-13  4.45618196266270E-01
 cg2d: Sum(rhs),rhsMax =   9.35640454002851E-14  4.45582827466059E-01
 cg2d: Sum(rhs),rhsMax =  -3.22797344409764E-14  4.45566674375017E-01
 cg2d: Sum(rhs),rhsMax =   1.38791755865952E-13  4.45566996847637E-01
 cg2d: Sum(rhs),rhsMax =   9.78384040450919E-15  4.45583607941127E-01
 cg2d: Sum(rhs),rhsMax =  -1.55819801506141E-13  4.45614456539291E-01
 cg2d: Sum(rhs),rhsMax =   1.74901759741886E-13  4.45657730515682E-01
 cg2d: Sum(rhs),rhsMax =  -1.74762981863807E-13  4.45708899983299E-01
 cg2d: Sum(rhs),rhsMax =  -5.10563813449494E-14  4.45768214410689E-01
 cg2d: Sum(rhs),rhsMax =   8.78186412478499E-14  4.45834175786336E-01
 cg2d: Sum(rhs),rhsMax =  -4.25215418431435E-14  4.45904207271558E-01
 cg2d: Sum(rhs),rhsMax =  -2.17187379192296E-14  4.45976224801039E-01
 cg2d: Sum(rhs),rhsMax =  -1.06248343456627E-13  4.46045741383259E-01
 cg2d: Sum(rhs),rhsMax =  -1.77635683940025E-15  4.46112367695898E-01
 cg2d: Sum(rhs),rhsMax =   1.01335606572661E-13  4.46174066725466E-01
 cg2d: Sum(rhs),rhsMax =   5.25274268525777E-14  4.46227709185972E-01
 cg2d: Sum(rhs),rhsMax =   1.02154396053322E-13  4.46271136324185E-01
 cg2d: Sum(rhs),rhsMax =   1.38777878078145E-17  4.46302443798618E-01
 cg2d: Sum(rhs),rhsMax =  -1.86656246015104E-14  4.46319850859325E-01
 cg2d: Sum(rhs),rhsMax =  -3.66651153882458E-14  4.46321663710895E-01
 cg2d: Sum(rhs),rhsMax =  -1.67782454596477E-13  4.46305143599973E-01
 cg2d: Sum(rhs),rhsMax =  -2.20462537114940E-13  4.46269897967060E-01
 cg2d: Sum(rhs),rhsMax =  -6.10900219299992E-14  4.46215451046436E-01
 cg2d: Sum(rhs),rhsMax =  -3.39450689779142E-14  4.46142388348279E-01
 cg2d: Sum(rhs),rhsMax =   1.11854969730985E-14  4.46048780264016E-01
 cg2d: Sum(rhs),rhsMax =  -4.96269692007445E-14  4.45934101149048E-01
 cg2d: Sum(rhs),rhsMax =   3.93990395863852E-14  4.45799421623887E-01
 cg2d: Sum(rhs),rhsMax =  -2.22044604925031E-15  4.45643906871908E-01
 cg2d: Sum(rhs),rhsMax =   9.49240686054509E-14  4.45467966198163E-01
 cg2d: Sum(rhs),rhsMax =   4.10643741233230E-14  4.45272273226345E-01
 cg2d: Sum(rhs),rhsMax =   4.53664883437455E-14  4.45057739318595E-01
 cg2d: Sum(rhs),rhsMax =  -1.22526988555194E-13  4.44825510195250E-01
 cg2d: Sum(rhs),rhsMax =   1.19793064357054E-13  4.44579190622559E-01
 cg2d: Sum(rhs),rhsMax =   4.29517532651857E-14  4.44318188473880E-01
 cg2d: Sum(rhs),rhsMax =  -7.56061879769732E-14  4.44044001952587E-01
 cg2d: Sum(rhs),rhsMax =  -1.26482158080421E-13  4.43758507477235E-01
 cg2d: Sum(rhs),rhsMax =   4.38676872605015E-14  4.43464470407201E-01
 cg2d: Sum(rhs),rhsMax =  -9.24677001634677E-14  4.43163876146736E-01
 cg2d: Sum(rhs),rhsMax =  -1.71515579516779E-13  4.42857678550003E-01
 cg2d: Sum(rhs),rhsMax =  -3.06005221162309E-14  4.42549044730956E-01
 cg2d: Sum(rhs),rhsMax =  -7.51343431915075E-14  4.42226763895130E-01
 cg2d: Sum(rhs),rhsMax =  -1.61953783717195E-14  4.41906409469235E-01
 cg2d: Sum(rhs),rhsMax =  -2.33701946683595E-13  4.41591270806994E-01
 cg2d: Sum(rhs),rhsMax =  -2.09970929532233E-14  4.41283578387086E-01
 cg2d: Sum(rhs),rhsMax =  -1.96329064117151E-13  4.40985944024683E-01
 cg2d: Sum(rhs),rhsMax =   8.81378303674296E-14  4.40700720841860E-01
 cg2d: Sum(rhs),rhsMax =  -4.47003545289704E-14  4.40430217514060E-01
 cg2d: Sum(rhs),rhsMax =   3.84831055910695E-14  4.40176699796546E-01
 cg2d: Sum(rhs),rhsMax =  -9.41607902760211E-14  4.39942369024449E-01
 cg2d: Sum(rhs),rhsMax =  -1.37626021690096E-13  4.39729089223892E-01
 cg2d: Sum(rhs),rhsMax =  -1.66616720420620E-13  4.39539050471148E-01
 cg2d: Sum(rhs),rhsMax =  -1.02542974111941E-13  4.39372045334244E-01
 cg2d: Sum(rhs),rhsMax =   1.62231339473351E-13  4.39230824554962E-01
 cg2d: Sum(rhs),rhsMax =  -3.76226827469850E-14  4.39116354716955E-01
 cg2d: Sum(rhs),rhsMax =  -1.55528367962177E-13  4.39029598835864E-01
 cg2d: Sum(rhs),rhsMax =   5.66768854071142E-14  4.38971238535914E-01
 cg2d: Sum(rhs),rhsMax =   2.57252552593457E-13  4.38941737979734E-01
 cg2d: Sum(rhs),rhsMax =  -1.87058701861531E-13  4.38941297726029E-01
 cg2d: Sum(rhs),rhsMax =  -5.36792832406263E-14  4.38969593081110E-01
 cg2d: Sum(rhs),rhsMax =  -1.40845668461509E-13  4.39025389016354E-01
 cg2d: Sum(rhs),rhsMax =   2.15577555806590E-13  4.39105912594550E-01
 cg2d: Sum(rhs),rhsMax =  -4.37427871702312E-14  4.39213080324981E-01
 cg2d: Sum(rhs),rhsMax =  -1.07455710995907E-13  4.39345510812977E-01
 cg2d: Sum(rhs),rhsMax =  -2.84355872182118E-14  4.39500373482647E-01
 cg2d: Sum(rhs),rhsMax =  -2.84494650060196E-14  4.39678584027352E-01
 cg2d: Sum(rhs),rhsMax =  -5.42343947529389E-14  4.39875892048170E-01
 cg2d: Sum(rhs),rhsMax =  -5.23608933988839E-14  4.40089341740877E-01
 cg2d: Sum(rhs),rhsMax =  -7.79792896921094E-14  4.40317628344725E-01
 cg2d: Sum(rhs),rhsMax =  -2.47024622979097E-15  4.40556236177344E-01
 cg2d: Sum(rhs),rhsMax =  -1.06956110634826E-13  4.40804072915028E-01
 cg2d: Sum(rhs),rhsMax =   1.87488913283573E-14  4.41058210747926E-01
 cg2d: Sum(rhs),rhsMax =  -2.92543766988729E-14  4.41315343589862E-01
 cg2d: Sum(rhs),rhsMax =  -4.09297595815872E-13  4.41572254010587E-01
 cg2d: Sum(rhs),rhsMax =  -1.04249942012302E-13  4.41825756172980E-01
 cg2d: Sum(rhs),rhsMax =   1.51559320649142E-13  4.42072667076258E-01
 cg2d: Sum(rhs),rhsMax =   4.06619182768964E-15  4.42309870522426E-01
 cg2d: Sum(rhs),rhsMax =   1.74901759741886E-13  4.42534361791929E-01
 cg2d: Sum(rhs),rhsMax =  -1.75456871254198E-13  4.42743152967807E-01
 cg2d: Sum(rhs),rhsMax =   4.61575222487909E-14  4.42933525899513E-01
 cg2d: Sum(rhs),rhsMax =  -1.51267887105178E-13  4.43103057692935E-01
 cg2d: Sum(rhs),rhsMax =  -3.54258289370080E-13  4.43249332132844E-01
 cg2d: Sum(rhs),rhsMax =   5.01682029252493E-14  4.43370349727835E-01
 cg2d: Sum(rhs),rhsMax =  -1.19598775327745E-13  4.43464313409216E-01
 cg2d: Sum(rhs),rhsMax =  -8.72912853111529E-15  4.43529682696310E-01
 cg2d: Sum(rhs),rhsMax =   4.14390743941340E-14  4.43565221195336E-01
 cg2d: Sum(rhs),rhsMax =  -1.66255897937617E-14  4.43570016763397E-01
 cg2d: Sum(rhs),rhsMax =  -1.86711757166336E-13  4.43543493150258E-01
 cg2d: Sum(rhs),rhsMax =  -9.28285226464709E-14  4.43485408079653E-01
 cg2d: Sum(rhs),rhsMax =   2.32799890476088E-13  4.43395933648467E-01
 cg2d: Sum(rhs),rhsMax =   1.00822128423772E-13  4.43275607335112E-01
 cg2d: Sum(rhs),rhsMax =   8.07687250414801E-15  4.43125198666875E-01
 cg2d: Sum(rhs),rhsMax =  -1.14658282868163E-13  4.42945950689962E-01
 cg2d: Sum(rhs),rhsMax =  -1.80563897167474E-13  4.42739245761368E-01
 cg2d: Sum(rhs),rhsMax =  -3.07684433487054E-13  4.42506697121749E-01
 cg2d: Sum(rhs),rhsMax =  -1.67837965747708E-13  4.42250189226656E-01
 cg2d: Sum(rhs),rhsMax =  -1.16490150858795E-13  4.41973338346168E-01
 cg2d: Sum(rhs),rhsMax =  -1.93178806284777E-13  4.41677219619876E-01
 cg2d: Sum(rhs),rhsMax =  -8.18650702782975E-14  4.41364160660669E-01
 cg2d: Sum(rhs),rhsMax =  -7.40935091059214E-14  4.41036753018086E-01
 cg2d: Sum(rhs),rhsMax =   1.17961196366423E-14  4.40697586737377E-01
 cg2d: Sum(rhs),rhsMax =  -4.26603197212216E-14  4.40349478610463E-01
 cg2d: Sum(rhs),rhsMax =  -1.03486663682872E-13  4.39995136073479E-01
 cg2d: Sum(rhs),rhsMax =  -5.13200593132979E-14  4.39637268451112E-01
 cg2d: Sum(rhs),rhsMax =  -8.06021915877864E-14  4.39279545692541E-01
 cg2d: Sum(rhs),rhsMax =   3.24046345312468E-14  4.38923501095234E-01
 cg2d: Sum(rhs),rhsMax =   8.58618731669480E-14  4.38574030996990E-01
 cg2d: Sum(rhs),rhsMax =   1.07969189144796E-13  4.38231153657459E-01
 cg2d: Sum(rhs),rhsMax =   1.62231339473351E-14  4.37896988183594E-01
 cg2d: Sum(rhs),rhsMax =   2.12607709215717E-14  4.37573674394251E-01
 cg2d: Sum(rhs),rhsMax =  -1.94566585065559E-14  4.37263120765256E-01
 cg2d: Sum(rhs),rhsMax =   8.93035645432860E-14  4.36967068255567E-01
 cg2d: Sum(rhs),rhsMax =  -1.75123804346811E-13  4.36687111169019E-01
 cg2d: Sum(rhs),rhsMax =  -1.71251901548430E-14  4.36424706935047E-01
 cg2d: Sum(rhs),rhsMax =   1.29909971668951E-13  4.36179555872024E-01
 cg2d: Sum(rhs),rhsMax =  -3.37507799486048E-14  4.35954300912950E-01
 cg2d: Sum(rhs),rhsMax =   3.07892600304172E-13  4.35750062412184E-01
 cg2d: Sum(rhs),rhsMax =  -6.80705491973299E-14  4.35567543776702E-01
 cg2d: Sum(rhs),rhsMax =  -1.36710087694780E-13  4.35407349639828E-01
 cg2d: Sum(rhs),rhsMax =  -3.78863607153335E-15  4.35269929419086E-01
 cg2d: Sum(rhs),rhsMax =  -1.29202204490753E-14  4.35155664728209E-01
 cg2d: Sum(rhs),rhsMax =   6.45317133063372E-14  4.35064743178384E-01
 cg2d: Sum(rhs),rhsMax =   1.75262582224889E-13  4.34995025378045E-01
 cg2d: Sum(rhs),rhsMax =   2.12663220366949E-13  4.34948714564009E-01
 cg2d: Sum(rhs),rhsMax =  -2.44762543566424E-13  4.34925700776778E-01
 cg2d: Sum(rhs),rhsMax =   1.81382686648135E-14  4.34925813008184E-01
 cg2d: Sum(rhs),rhsMax =  -9.71445146547012E-15  4.34948779744151E-01
 cg2d: Sum(rhs),rhsMax =   7.89646126264643E-15  4.34994205056559E-01
 cg2d: Sum(rhs),rhsMax =   7.47735207085043E-14  4.35061517207552E-01
 cg2d: Sum(rhs),rhsMax =  -8.44740943861666E-14  4.35150034332905E-01
 cg2d: Sum(rhs),rhsMax =   4.32182067910958E-13  4.35257784274874E-01
 cg2d: Sum(rhs),rhsMax =  -8.52790060790198E-14  4.35405299644960E-01
 cg2d: Sum(rhs),rhsMax =   1.40346068100428E-13  4.35571250033219E-01
 cg2d: Sum(rhs),rhsMax =  -1.08427156142454E-13  4.35753672071492E-01
 cg2d: Sum(rhs),rhsMax =  -6.06459327201492E-14  4.35951275217456E-01
 cg2d: Sum(rhs),rhsMax =  -5.02375918642883E-15  4.36162436153204E-01
 cg2d: Sum(rhs),rhsMax =  -4.30072644164170E-14  4.36385373553274E-01
 cg2d: Sum(rhs),rhsMax =   4.71983563343770E-14  4.36618287732264E-01
 cg2d: Sum(rhs),rhsMax =  -2.04003480774873E-14  4.36859062796200E-01
 cg2d: Sum(rhs),rhsMax =  -1.55431223447522E-13  4.37105557539925E-01
 cg2d: Sum(rhs),rhsMax =   1.16587295373449E-13  4.37355434132953E-01
 cg2d: Sum(rhs),rhsMax =  -1.01335606572661E-13  4.37606404478627E-01
 cg2d: Sum(rhs),rhsMax =   1.11410880521134E-13  4.37855964439624E-01
 cg2d: Sum(rhs),rhsMax =   9.00668428727158E-15  4.38101531675292E-01
 cg2d: Sum(rhs),rhsMax =  -4.18276524527528E-14  4.38340606099610E-01
 cg2d: Sum(rhs),rhsMax =   6.38100683403309E-14  4.38570592449273E-01
 cg2d: Sum(rhs),rhsMax =  -3.67483821150927E-14  4.38788813019452E-01
 cg2d: Sum(rhs),rhsMax =  -4.33542091116124E-14  4.38992701181791E-01
 cg2d: Sum(rhs),rhsMax =   3.08780778723872E-14  4.39179728087690E-01
 cg2d: Sum(rhs),rhsMax =  -1.08024700296028E-13  4.39347428645400E-01
 cg2d: Sum(rhs),rhsMax =  -1.87641568949459E-13  4.39493504814964E-01
 cg2d: Sum(rhs),rhsMax =  -2.06223926824123E-14  4.39615788721183E-01
 cg2d: Sum(rhs),rhsMax =  -7.62029328527092E-14  4.39712211558374E-01
 cg2d: Sum(rhs),rhsMax =  -1.37848066295021E-13  4.39781115674090E-01
 cg2d: Sum(rhs),rhsMax =  -1.68989822135757E-13  4.39821045885995E-01
 cg2d: Sum(rhs),rhsMax =  -1.27065025168349E-13  4.39830736972140E-01
 cg2d: Sum(rhs),rhsMax =  -9.59510249032292E-14  4.39809631939768E-01
 cg2d: Sum(rhs),rhsMax =   1.83839055090118E-13  4.39757450305631E-01
 cg2d: Sum(rhs),rhsMax =   1.45577994103974E-14  4.39673797870826E-01
 cg2d: Sum(rhs),rhsMax =  -6.00353100566053E-14  4.39552880117913E-01
 cg2d: Sum(rhs),rhsMax =   2.56739074444567E-14  4.39402542782269E-01
 cg2d: Sum(rhs),rhsMax =  -2.01963445967124E-13  4.39223677957454E-01
 cg2d: Sum(rhs),rhsMax =  -8.00887134388972E-14  4.39018209986964E-01
 cg2d: Sum(rhs),rhsMax =  -2.08999484385686E-13  4.38788534034990E-01
 cg2d: Sum(rhs),rhsMax =  -1.91222038203875E-13  4.38537253106077E-01
 cg2d: Sum(rhs),rhsMax =  -2.93667867801162E-13  4.38267205423132E-01
 cg2d: Sum(rhs),rhsMax =  -8.75272077038858E-14  4.37981654106999E-01
 cg2d: Sum(rhs),rhsMax =   7.07489622442381E-14  4.37684179568012E-01
 cg2d: Sum(rhs),rhsMax =   3.20576898360514E-15  4.37378608490155E-01
 cg2d: Sum(rhs),rhsMax =   2.38406516750445E-13  4.37069994564151E-01
 cg2d: Sum(rhs),rhsMax =  -1.49047441055927E-13  4.36761538446281E-01
 cg2d: Sum(rhs),rhsMax =   3.30568905582140E-14  4.36869456249845E-01
 cg2d: Sum(rhs),rhsMax =  -5.13478148889135E-14  4.37733295763818E-01
 cg2d: Sum(rhs),rhsMax =  -8.50708392619026E-15  4.38575629411529E-01
 cg2d: Sum(rhs),rhsMax =   1.07969189144796E-14  4.39392746876083E-01
 cg2d: Sum(rhs),rhsMax =  -8.61255511352965E-14  4.40182662812772E-01
 cg2d: Sum(rhs),rhsMax =  -1.47118428550641E-13  4.40944593215344E-01
 cg2d: Sum(rhs),rhsMax =  -7.98250354705488E-14  4.41676495760883E-01
 cg2d: Sum(rhs),rhsMax =  -2.35922392732846E-16  4.42376269161631E-01
 cg2d: Sum(rhs),rhsMax =   2.21850315895722E-13  4.43041862143029E-01
 cg2d: Sum(rhs),rhsMax =  -1.43662859386495E-13  4.43671616892148E-01
 cg2d: Sum(rhs),rhsMax =  -1.22443721828347E-13  4.44264968954749E-01
 cg2d: Sum(rhs),rhsMax =   8.72357741599217E-14  4.44820653088918E-01
 cg2d: Sum(rhs),rhsMax =  -1.90389370935407E-13  4.45339530877684E-01
 cg2d: Sum(rhs),rhsMax =   2.47440956613332E-14  4.45822996849529E-01
 cg2d: Sum(rhs),rhsMax =  -1.64868119156836E-14  4.46273333975039E-01
 cg2d: Sum(rhs),rhsMax =  -1.40235045797965E-13  4.46693216971939E-01
 cg2d: Sum(rhs),rhsMax =  -1.66117120059539E-14  4.47085512441221E-01
 cg2d: Sum(rhs),rhsMax =   7.32469640496447E-14  4.47454059981404E-01
 cg2d: Sum(rhs),rhsMax =  -3.69149155687865E-15  4.47802645466973E-01
 cg2d: Sum(rhs),rhsMax =   1.10050857315969E-14  4.48135323550789E-01
 cg2d: Sum(rhs),rhsMax =   9.35779231880929E-14  4.48456577818881E-01
 cg2d: Sum(rhs),rhsMax =  -7.58004770062826E-14  4.48770969329015E-01
 cg2d: Sum(rhs),rhsMax =  -2.71865863155085E-14  4.49083186119556E-01
 cg2d: Sum(rhs),rhsMax =   1.48908663177849E-14  4.49396750373199E-01
 cg2d: Sum(rhs),rhsMax =  -1.92262872289461E-13  4.49715698423444E-01
 cg2d: Sum(rhs),rhsMax =  -8.69859739793810E-14  4.50043477762950E-01
 cg2d: Sum(rhs),rhsMax =  -1.52391987917611E-13  4.50385376563623E-01
 cg2d: Sum(rhs),rhsMax =   1.86475834773603E-13  4.50745113382027E-01
 cg2d: Sum(rhs),rhsMax =  -2.77555756156289E-15  4.51124797654950E-01
 cg2d: Sum(rhs),rhsMax =   8.13238365537927E-15  4.51525518924787E-01
 cg2d: Sum(rhs),rhsMax =  -3.27946003686463E-13  4.51948937164596E-01
 cg2d: Sum(rhs),rhsMax =  -1.25940924355916E-13  4.52396537919616E-01
 cg2d: Sum(rhs),rhsMax =   6.04238881152241E-14  4.52868070140314E-01
 cg2d: Sum(rhs),rhsMax =   2.81066836471666E-13  4.53364473544584E-01
 cg2d: Sum(rhs),rhsMax =  -1.51906265344337E-13  4.53886575546711E-01
 cg2d: Sum(rhs),rhsMax =   2.42111886095131E-13  4.54432339358834E-01
 cg2d: Sum(rhs),rhsMax =   2.06223926824123E-14  4.55000008783095E-01
 cg2d: Sum(rhs),rhsMax =   4.21884749357559E-15  4.55587557758463E-01
 cg2d: Sum(rhs),rhsMax =  -6.02157212981069E-14  4.56192725081220E-01
 cg2d: Sum(rhs),rhsMax =  -9.94759830064140E-14  4.56812824599947E-01
 cg2d: Sum(rhs),rhsMax =   1.91624494050302E-13  4.57443564350209E-01
 cg2d: Sum(rhs),rhsMax =   1.34614541735800E-15  4.58084214993553E-01
 cg2d: Sum(rhs),rhsMax =   3.09474668114262E-14  4.58732160693494E-01
 cg2d: Sum(rhs),rhsMax =   3.85205756181506E-13  4.59384789377669E-01
 cg2d: Sum(rhs),rhsMax =  -1.47937218031302E-14  4.60039401603257E-01
 cg2d: Sum(rhs),rhsMax =  -1.54251611483858E-13  4.60692685953314E-01
 cg2d: Sum(rhs),rhsMax =   3.33066907387547E-15  4.61341252032333E-01
 cg2d: Sum(rhs),rhsMax =   2.41293096614470E-13  4.61980807020074E-01
 cg2d: Sum(rhs),rhsMax =  -2.74502642838570E-14  4.62608897692503E-01
 cg2d: Sum(rhs),rhsMax =   1.09218190047500E-13  4.63225675540895E-01
 cg2d: Sum(rhs),rhsMax =   2.93515212135276E-14  4.63825617603210E-01
 cg2d: Sum(rhs),rhsMax =  -1.25746635326607E-13  4.64407297626563E-01
 cg2d: Sum(rhs),rhsMax =  -3.61516372393567E-14  4.64968255881141E-01
 cg2d: Sum(rhs),rhsMax =  -8.89288642724750E-14  4.65507509096218E-01
 cg2d: Sum(rhs),rhsMax =  -1.56291646291606E-13  4.66024793654168E-01
 cg2d: Sum(rhs),rhsMax =  -2.18852713729234E-14  4.66520483492121E-01
 cg2d: Sum(rhs),rhsMax =   1.72084568816899E-13  4.66995113427882E-01
 cg2d: Sum(rhs),rhsMax =   2.81580314620555E-14  4.67449577425752E-01
 cg2d: Sum(rhs),rhsMax =  -1.03222985714524E-13  4.67884978994401E-01
 cg2d: Sum(rhs),rhsMax =   2.12330153459561E-15  4.68303152280769E-01
 cg2d: Sum(rhs),rhsMax =   1.66339164664464E-13  4.68705736463190E-01
 cg2d: Sum(rhs),rhsMax =   5.64409630143814E-14  4.69094369378515E-01
 cg2d: Sum(rhs),rhsMax =  -2.50077736296817E-14  4.69471360037868E-01
 cg2d: Sum(rhs),rhsMax =   1.89820381635286E-13  4.69838141251482E-01
 cg2d: Sum(rhs),rhsMax =  -8.46545056276682E-14  4.70196405566329E-01
 cg2d: Sum(rhs),rhsMax =   6.47398801234544E-14  4.70548015760650E-01
 cg2d: Sum(rhs),rhsMax =   6.53227472113826E-14  4.70896474222081E-01
 cg2d: Sum(rhs),rhsMax =  -1.55514490174369E-13  4.71244347862834E-01
 cg2d: Sum(rhs),rhsMax =  -1.09218190047500E-13  4.71588525452431E-01
 cg2d: Sum(rhs),rhsMax =  -2.58792987040124E-13  4.71929926649710E-01
 cg2d: Sum(rhs),rhsMax =   4.58938442804424E-14  4.72268201838886E-01
 cg2d: Sum(rhs),rhsMax =   1.52822199339653E-13  4.72602061982710E-01
 cg2d: Sum(rhs),rhsMax =   3.63875596320895E-14  4.72933878814036E-01
 cg2d: Sum(rhs),rhsMax =  -3.86357612569554E-14  4.73265808519189E-01
 cg2d: Sum(rhs),rhsMax =   3.27515792264421E-14  4.73599742376252E-01
 cg2d: Sum(rhs),rhsMax =  -4.22994972382185E-14  4.73937010123882E-01
 cg2d: Sum(rhs),rhsMax =   1.38514200109796E-13  4.74274799348715E-01
 cg2d: Sum(rhs),rhsMax =  -5.34156052722778E-14  4.74607969451390E-01
 cg2d: Sum(rhs),rhsMax =  -1.43662859386495E-13  4.74933548409303E-01
 cg2d: Sum(rhs),rhsMax =   8.91925422408235E-14  4.75249613879844E-01
 cg2d: Sum(rhs),rhsMax =  -1.09481868015848E-13  4.75557316219982E-01
 cg2d: Sum(rhs),rhsMax =   3.60822483003176E-16  4.75855402761000E-01
 cg2d: Sum(rhs),rhsMax =   4.50889325875892E-14  4.76141962696052E-01
 cg2d: Sum(rhs),rhsMax =  -1.46771483855446E-13  4.76415598184028E-01
 cg2d: Sum(rhs),rhsMax =  -1.13187237360535E-13  4.76673968899639E-01
 cg2d: Sum(rhs),rhsMax =  -1.88127291522733E-13  4.76916960920269E-01
 cg2d: Sum(rhs),rhsMax =   2.36616282123236E-13  4.77144416297199E-01
 cg2d: Sum(rhs),rhsMax =   6.29774010718620E-14  4.77356279693580E-01
 cg2d: Sum(rhs),rhsMax =  -4.91273688396632E-15  4.77552853144383E-01
 cg2d: Sum(rhs),rhsMax =   3.14609449603154E-14  4.77734554163864E-01
 cg2d: Sum(rhs),rhsMax =   1.69433911345607E-13  4.77901344296402E-01
 cg2d: Sum(rhs),rhsMax =  -1.82132087189757E-13  4.78054886738050E-01
 cg2d: Sum(rhs),rhsMax =   5.34849942113169E-14  4.78197360354096E-01
 cg2d: Sum(rhs),rhsMax =   1.69461666921222E-13  4.78330563823909E-01
 cg2d: Sum(rhs),rhsMax =   1.85823578746636E-13  4.78456951030397E-01
 cg2d: Sum(rhs),rhsMax =   1.12063136548102E-13  4.78579654811492E-01
 cg2d: Sum(rhs),rhsMax =   9.67281810204668E-15  4.78621154355928E-01
 cg2d: Sum(rhs),rhsMax =  -4.55191440096314E-15  4.78664600262304E-01
 cg2d: Sum(rhs),rhsMax =  -1.83381088092460E-13  4.78716629773740E-01
 cg2d: Sum(rhs),rhsMax =   4.48391324070485E-14  4.78780653360282E-01
 cg2d: Sum(rhs),rhsMax =   3.88994392253039E-14  4.78860656693866E-01
 cg2d: Sum(rhs),rhsMax =  -1.13700715509424E-13  4.78960412796744E-01
 cg2d: Sum(rhs),rhsMax =   9.22734111341583E-14  4.79082742065653E-01
 cg2d: Sum(rhs),rhsMax =  -4.28823643261467E-14  4.79230044415773E-01
 cg2d: Sum(rhs),rhsMax =  -1.35280675550575E-13  4.79407841267129E-01
 cg2d: Sum(rhs),rhsMax =  -8.88178419700125E-15  4.79617473964169E-01
 cg2d: Sum(rhs),rhsMax =  -4.48807657704720E-14  4.79853838749752E-01
 cg2d: Sum(rhs),rhsMax =   9.36750677027476E-15  4.80114421715306E-01
 cg2d: Sum(rhs),rhsMax =  -1.36973765663129E-13  4.80401294985236E-01
 cg2d: Sum(rhs),rhsMax =  -1.25871535416877E-14  4.80716162006412E-01
 cg2d: Sum(rhs),rhsMax =  -5.06678032863306E-14  4.81060018717624E-01
 cg2d: Sum(rhs),rhsMax =  -2.02754479872169E-13  4.81433463465872E-01
 cg2d: Sum(rhs),rhsMax =  -7.49678097378137E-14  4.81836460580188E-01
 cg2d: Sum(rhs),rhsMax =  -6.33521013426730E-14  4.82268382500195E-01
 cg2d: Sum(rhs),rhsMax =  -1.58817403672629E-13  4.82726795039256E-01
 cg2d: Sum(rhs),rhsMax =  -1.14144804719274E-13  4.83205437746594E-01
 cg2d: Sum(rhs),rhsMax =  -1.28994037673635E-13  4.83695411391647E-01
 cg2d: Sum(rhs),rhsMax =  -1.36002320516582E-13  4.84190242420343E-01
 cg2d: Sum(rhs),rhsMax =   5.15004705547994E-14  4.84684863256108E-01
 cg2d: Sum(rhs),rhsMax =   3.12944115066216E-14  4.85177673363980E-01
 cg2d: Sum(rhs),rhsMax =  -1.91971438745497E-13  4.85664002059111E-01
 cg2d: Sum(rhs),rhsMax =   2.25652829755063E-14  4.86139197575613E-01
 cg2d: Sum(rhs),rhsMax =   1.60316204755873E-13  4.86598180096333E-01
 cg2d: Sum(rhs),rhsMax =  -2.69784194983913E-14  4.87037108871944E-01
 cg2d: Sum(rhs),rhsMax =   9.00529650849080E-14  4.87451683321381E-01
 cg2d: Sum(rhs),rhsMax =   4.96547247763601E-14  4.87837958814893E-01
 cg2d: Sum(rhs),rhsMax =   9.13158437754191E-15  4.88192954689314E-01
 cg2d: Sum(rhs),rhsMax =   1.43912659567036E-14  4.88513174265122E-01
 cg2d: Sum(rhs),rhsMax =  -8.57092175010621E-14  4.88798598990375E-01
 cg2d: Sum(rhs),rhsMax =   1.62522773017315E-13  4.89047336826816E-01
 cg2d: Sum(rhs),rhsMax =   3.23907567434389E-14  4.89258239870160E-01
 cg2d: Sum(rhs),rhsMax =  -1.96648253236731E-14  4.89432046587170E-01
 cg2d: Sum(rhs),rhsMax =   2.79082312815149E-14  4.89569585092435E-01
 cg2d: Sum(rhs),rhsMax =   9.67281810204668E-15  4.89672082122938E-01
 cg2d: Sum(rhs),rhsMax =   6.46843689722232E-14  4.89742366674445E-01
 cg2d: Sum(rhs),rhsMax =  -3.95655730400790E-14  4.89781703201360E-01
 cg2d: Sum(rhs),rhsMax =   1.42635903088717E-13  4.89793805778407E-01
 cg2d: Sum(rhs),rhsMax =  -1.73056013963446E-14  4.89781470772836E-01
 cg2d: Sum(rhs),rhsMax =   7.79654119043016E-14  4.89748823696404E-01
 cg2d: Sum(rhs),rhsMax =  -3.54855034245816E-14  4.89700307049535E-01
 cg2d: Sum(rhs),rhsMax =  -7.93115573216596E-14  4.89638522078375E-01
 cg2d: Sum(rhs),rhsMax =  -1.16809339978374E-13  4.89566139946266E-01
 cg2d: Sum(rhs),rhsMax =  -1.75900960464048E-13  4.89487107167902E-01
 cg2d: Sum(rhs),rhsMax =  -1.48436818392383E-13  4.89402386173668E-01
 cg2d: Sum(rhs),rhsMax =  -2.41889841490206E-14  4.89308751690539E-01
 cg2d: Sum(rhs),rhsMax =   1.44328993201270E-15  4.89213288349929E-01
 cg2d: Sum(rhs),rhsMax =  -3.43197692487252E-14  4.89117551407034E-01
 cg2d: Sum(rhs),rhsMax =  -3.28487237410968E-14  4.89022132082682E-01
 cg2d: Sum(rhs),rhsMax =  -2.41612285734050E-13  4.88930663651247E-01
 cg2d: Sum(rhs),rhsMax =   2.63122856836162E-14  4.88846972726083E-01
 cg2d: Sum(rhs),rhsMax =  -9.33420007953600E-14  4.88774518509894E-01
 cg2d: Sum(rhs),rhsMax =   6.70019595361282E-14  4.88716091249930E-01
 cg2d: Sum(rhs),rhsMax =   1.73652758839182E-13  4.88674347580245E-01
 cg2d: Sum(rhs),rhsMax =   9.14129882900738E-14  4.88651084145573E-01
 cg2d: Sum(rhs),rhsMax =  -4.79338790881911E-14  4.88647604512336E-01
 cg2d: Sum(rhs),rhsMax =  -3.00967584188072E-13  4.88663092442439E-01
 cg2d: Sum(rhs),rhsMax =  -1.29354860156639E-13  4.88689885256749E-01
 cg2d: Sum(rhs),rhsMax =  -6.69742039605126E-14  4.88725537150030E-01
 cg2d: Sum(rhs),rhsMax =   5.93691762418302E-14  4.88772128688246E-01
 cg2d: Sum(rhs),rhsMax =  -1.70835567914196E-14  4.88829460061717E-01
 cg2d: Sum(rhs),rhsMax =  -4.35762537165374E-15  4.88896772636396E-01
 cg2d: Sum(rhs),rhsMax =  -6.01324545712600E-14  4.88972379074585E-01
 cg2d: Sum(rhs),rhsMax =  -4.44505543484297E-14  4.89054082838047E-01
 cg2d: Sum(rhs),rhsMax =  -4.96408469885523E-14  4.89141701818055E-01
 cg2d: Sum(rhs),rhsMax =  -2.32411312417469E-13  4.89234749802272E-01
 cg2d: Sum(rhs),rhsMax =  -1.09925957225698E-13  4.89332914606111E-01
 cg2d: Sum(rhs),rhsMax =   6.48231468503013E-14  4.89436335810572E-01
 cg2d: Sum(rhs),rhsMax =   7.96723798046628E-14  4.89545353968197E-01
 cg2d: Sum(rhs),rhsMax =  -8.92758089676704E-14  4.89660608700850E-01
 cg2d: Sum(rhs),rhsMax =   6.89587276170300E-14  4.89782653720160E-01
 cg2d: Sum(rhs),rhsMax =   1.42594269725294E-13  4.89911972512128E-01
 cg2d: Sum(rhs),rhsMax =  -1.81382686648135E-14  4.90049367734409E-01
 cg2d: Sum(rhs),rhsMax =   3.40005801291454E-14  4.90196488035256E-01
 cg2d: Sum(rhs),rhsMax =   8.25728374564960E-15  4.90354351594421E-01
 cg2d: Sum(rhs),rhsMax =   8.67084182232247E-14  4.90523745258096E-01
 cg2d: Sum(rhs),rhsMax =  -1.82770465428916E-14  4.90705363411836E-01
 cg2d: Sum(rhs),rhsMax =   3.93157728595384E-14  4.90898692365840E-01
 cg2d: Sum(rhs),rhsMax =  -6.86256607096425E-14  4.91103937505980E-01
 cg2d: Sum(rhs),rhsMax =   2.41473507855972E-14  4.91320925634868E-01
 cg2d: Sum(rhs),rhsMax =   1.64035451888367E-14  4.91548805816518E-01
 cg2d: Sum(rhs),rhsMax =   4.15084633331730E-14  4.91787446005914E-01
 cg2d: Sum(rhs),rhsMax =   3.93712840107696E-14  4.92030870424903E-01
 cg2d: Sum(rhs),rhsMax =   1.29007915461443E-13  4.92275828659102E-01
 cg2d: Sum(rhs),rhsMax =   2.45109488261619E-13  4.92523618882525E-01
 cg2d: Sum(rhs),rhsMax =   5.22776266720371E-14  4.92771875811450E-01
 cg2d: Sum(rhs),rhsMax =   3.74700270810990E-14  4.93017282101234E-01
 cg2d: Sum(rhs),rhsMax =  -1.67491021052513E-13  4.93244216528142E-01
 cg2d: Sum(rhs),rhsMax =  -2.21489493412719E-14  4.93467558275782E-01
 cg2d: Sum(rhs),rhsMax =   1.18516307878735E-14  4.93686950056127E-01
 cg2d: Sum(rhs),rhsMax =   6.50451914552264E-14  4.93902393875637E-01
 cg2d: Sum(rhs),rhsMax =   1.02001740387436E-14  4.94112033620790E-01
 cg2d: Sum(rhs),rhsMax =  -2.01783034725622E-14  4.94315933097888E-01
 cg2d: Sum(rhs),rhsMax =   1.30243038576339E-13  4.94511775400953E-01
 cg2d: Sum(rhs),rhsMax =  -3.62626595418192E-14  4.94695809075656E-01
 cg2d: Sum(rhs),rhsMax =   1.58401070038394E-13  4.94860493005438E-01
 cg2d: Sum(rhs),rhsMax =  -6.57945919968483E-14  4.95002221501839E-01
 cg2d: Sum(rhs),rhsMax =  -4.19109191795997E-14  4.95003631212287E-01
 cg2d: Sum(rhs),rhsMax =   7.35800309570322E-14  4.94977491781464E-01
 cg2d: Sum(rhs),rhsMax =   5.44148059944405E-14  4.94925874128591E-01
 cg2d: Sum(rhs),rhsMax =  -6.63913368725844E-14  4.94845708954766E-01
 cg2d: Sum(rhs),rhsMax =  -1.37112543541207E-13  4.94737040710342E-01
 cg2d: Sum(rhs),rhsMax =  -2.57543986137421E-13  4.94600493232807E-01
 cg2d: Sum(rhs),rhsMax =  -1.34697808462647E-13  4.94436493772183E-01
 cg2d: Sum(rhs),rhsMax =   1.84741111297626E-13  4.94245384430375E-01
 cg2d: Sum(rhs),rhsMax =  -4.41729985922734E-14  4.94028842301807E-01
 cg2d: Sum(rhs),rhsMax =   7.00967062172708E-14  4.93788609000501E-01
 cg2d: Sum(rhs),rhsMax =  -2.05252481677576E-14  4.93527091600142E-01
 cg2d: Sum(rhs),rhsMax =   4.56440440999017E-14  4.93246948911488E-01
 cg2d: Sum(rhs),rhsMax =  -1.80411241501588E-15  4.92951090494668E-01
 cg2d: Sum(rhs),rhsMax =   5.42899059041702E-14  4.92642779053915E-01
 cg2d: Sum(rhs),rhsMax =  -7.00828284294630E-14  4.92326613287155E-01
 cg2d: Sum(rhs),rhsMax =  -2.08680295266106E-13  4.92004245407712E-01
 cg2d: Sum(rhs),rhsMax =  -1.83131287911920E-13  4.91679682428281E-01
 cg2d: Sum(rhs),rhsMax =  -1.09079412169422E-14  4.91357048356139E-01
 cg2d: Sum(rhs),rhsMax =   1.04180553073263E-13  4.91040480569854E-01
 cg2d: Sum(rhs),rhsMax =  -2.09512962534575E-13  4.90733522633144E-01
 cg2d: Sum(rhs),rhsMax =   8.21009926710303E-14  4.90439914400175E-01
 cg2d: Sum(rhs),rhsMax =  -5.28743715477731E-14  4.90162814156566E-01
 cg2d: Sum(rhs),rhsMax =  -1.00475183728577E-14  4.89904401660331E-01
 cg2d: Sum(rhs),rhsMax =  -1.14033782416811E-13  4.89669016956988E-01
 cg2d: Sum(rhs),rhsMax =   2.06779038336435E-14  4.89456468469951E-01
 cg2d: Sum(rhs),rhsMax =   6.16312556545040E-14  4.89265096806753E-01
 cg2d: Sum(rhs),rhsMax =  -4.46032100143157E-14  4.89096552657772E-01
 cg2d: Sum(rhs),rhsMax =  -6.16451334423118E-14  4.88952557636263E-01
 cg2d: Sum(rhs),rhsMax =  -1.43204892388837E-13  4.88835260070550E-01
 cg2d: Sum(rhs),rhsMax =   1.54626311754669E-13  4.88746575023222E-01
 cg2d: Sum(rhs),rhsMax =  -1.09912079437890E-13  4.88686338830516E-01
 cg2d: Sum(rhs),rhsMax =  -3.21132009872827E-14  4.88655785624232E-01
 cg2d: Sum(rhs),rhsMax =   1.72084568816899E-15  4.88655490113599E-01
 cg2d: Sum(rhs),rhsMax =  -3.92463839204993E-14  4.88684011695520E-01
 cg2d: Sum(rhs),rhsMax =  -1.40748523946854E-13  4.88740133411889E-01
 cg2d: Sum(rhs),rhsMax =   1.57790447374850E-14  4.88823263623701E-01
 cg2d: Sum(rhs),rhsMax =   1.79509185294080E-13  4.88930026978891E-01
 cg2d: Sum(rhs),rhsMax =  -1.09343090137770E-13  4.89052713526398E-01
 cg2d: Sum(rhs),rhsMax =   8.02691246803988E-14  4.89188422732492E-01
 cg2d: Sum(rhs),rhsMax =   1.59455781911788E-14  4.89333496500352E-01
 cg2d: Sum(rhs),rhsMax =   1.67407754325666E-13  4.89484601772234E-01
 cg2d: Sum(rhs),rhsMax =  -4.42007541678890E-14  4.89638771112481E-01
 cg2d: Sum(rhs),rhsMax =  -1.47645784487338E-13  4.89793185355695E-01
 cg2d: Sum(rhs),rhsMax =  -5.13200593132979E-14  4.89945414190792E-01
 cg2d: Sum(rhs),rhsMax =   8.46961389910916E-14  4.90093303059199E-01
 cg2d: Sum(rhs),rhsMax =   3.19883008970123E-14  4.90233735314968E-01
 cg2d: Sum(rhs),rhsMax =  -2.77278200400133E-14  4.90364967461841E-01
 cg2d: Sum(rhs),rhsMax =   2.16784923345870E-13  4.90485245709042E-01
 cg2d: Sum(rhs),rhsMax =  -7.06795733051990E-14  4.90592424461343E-01
 cg2d: Sum(rhs),rhsMax =   8.89288642724750E-14  4.90683989903139E-01
 cg2d: Sum(rhs),rhsMax =   9.79771819231701E-15  4.90757706641623E-01
 cg2d: Sum(rhs),rhsMax =  -8.70692407062279E-14  4.90810689671574E-01
 cg2d: Sum(rhs),rhsMax =  -2.87964097012150E-14  4.90842950854902E-01
 cg2d: Sum(rhs),rhsMax =  -1.03431152531641E-13  4.90854468810104E-01
 cg2d: Sum(rhs),rhsMax =   3.30152571947906E-14  4.90845065725907E-01
 cg2d: Sum(rhs),rhsMax =  -3.63042929052426E-14  4.90814771794372E-01
 cg2d: Sum(rhs),rhsMax =   6.24361673473572E-14  4.90763988778994E-01
 cg2d: Sum(rhs),rhsMax =   1.18419163364081E-13  4.90692947456156E-01
 cg2d: Sum(rhs),rhsMax =   9.07607322631065E-15  4.90601101927852E-01
 cg2d: Sum(rhs),rhsMax =  -1.19376730722820E-13  4.90488799897976E-01
 cg2d: Sum(rhs),rhsMax =   2.65065747129256E-14  4.90350760582638E-01
 cg2d: Sum(rhs),rhsMax =  -2.24958940364672E-14  4.90185668103574E-01
 cg2d: Sum(rhs),rhsMax =   3.86912724081867E-14  4.89992590299264E-01
 cg2d: Sum(rhs),rhsMax =  -1.32949207198862E-14  4.89772255165241E-01
 cg2d: Sum(rhs),rhsMax =   4.56440440999017E-14  4.89528178362883E-01
 cg2d: Sum(rhs),rhsMax =   1.76803016671556E-14  4.89263083451988E-01
 cg2d: Sum(rhs),rhsMax =  -1.44939615864814E-13  4.88979832364563E-01
 cg2d: Sum(rhs),rhsMax =   1.48603351846077E-13  4.88681229233054E-01
 cg2d: Sum(rhs),rhsMax =  -2.33008057293205E-14  4.88370362170044E-01
 cg2d: Sum(rhs),rhsMax =   1.22138410496575E-13  4.88050365513256E-01
 cg2d: Sum(rhs),rhsMax =   1.61551327870768E-13  4.87724214494697E-01
 cg2d: Sum(rhs),rhsMax =  -3.43614026121486E-14  4.87393104504621E-01
 cg2d: Sum(rhs),rhsMax =   6.85701495584112E-14  4.87058801443606E-01
 cg2d: Sum(rhs),rhsMax =   9.35085342490538E-14  4.86723330034115E-01
 cg2d: Sum(rhs),rhsMax =   1.08621445171764E-13  4.86388026733854E-01
 cg2d: Sum(rhs),rhsMax =  -7.54118989476638E-14  4.86054331910310E-01
 cg2d: Sum(rhs),rhsMax =  -1.18335896637234E-13  4.85717940194456E-01
 cg2d: Sum(rhs),rhsMax =   5.64409630143814E-14  4.85377925288766E-01
 cg2d: Sum(rhs),rhsMax =   2.89213097914853E-14  4.85036744438274E-01
 cg2d: Sum(rhs),rhsMax =  -7.40102423790745E-14  4.84694607501109E-01
 cg2d: Sum(rhs),rhsMax =  -5.43315392675936E-14  4.84352900403197E-01
 cg2d: Sum(rhs),rhsMax =   2.30926389122033E-14  4.84013360030877E-01
 cg2d: Sum(rhs),rhsMax =  -1.63327684710168E-13  4.83678344006429E-01
 cg2d: Sum(rhs),rhsMax =  -1.88737914186277E-13  4.83349620321584E-01
 cg2d: Sum(rhs),rhsMax =   8.98170426921752E-14  4.83029039045934E-01
 cg2d: Sum(rhs),rhsMax =   7.46624984060418E-15  4.82718571341575E-01
 cg2d: Sum(rhs),rhsMax =  -1.84435799965854E-14  4.82420082076241E-01
 cg2d: Sum(rhs),rhsMax =  -1.86739512741951E-13  4.82135465428253E-01
 cg2d: Sum(rhs),rhsMax =  -7.08044733954694E-14  4.81866426448149E-01
 cg2d: Sum(rhs),rhsMax =  -1.51267887105178E-15  4.81614735713311E-01
 cg2d: Sum(rhs),rhsMax =   2.86298762475212E-14  4.81381891353461E-01
 cg2d: Sum(rhs),rhsMax =  -3.38062910998360E-14  4.81169783539985E-01
 cg2d: Sum(rhs),rhsMax =  -1.59455781911788E-13  4.80979113016573E-01
 cg2d: Sum(rhs),rhsMax =   2.31065167000111E-14  4.80812176576425E-01
 cg2d: Sum(rhs),rhsMax =   1.59164348367824E-13  4.80669576063026E-01
 cg2d: Sum(rhs),rhsMax =  -2.57821541893577E-13  4.80551961749686E-01
 cg2d: Sum(rhs),rhsMax =   1.70655156672694E-13  4.80459614291301E-01
 cg2d: Sum(rhs),rhsMax =  -2.39253061806721E-14  4.80391635596973E-01
 cg2d: Sum(rhs),rhsMax =  -1.54889989723017E-13  4.80344049343457E-01
 cg2d: Sum(rhs),rhsMax =  -1.05554454066237E-13  4.80318921754295E-01
 cg2d: Sum(rhs),rhsMax =   2.88657986402541E-15  4.80315081222564E-01
 cg2d: Sum(rhs),rhsMax =   5.83005865806285E-14  4.80327210171451E-01
 cg2d: Sum(rhs),rhsMax =  -1.28258514919821E-13  4.80354414212161E-01
 cg2d: Sum(rhs),rhsMax =   7.14706072102445E-15  4.80395763115471E-01
 cg2d: Sum(rhs),rhsMax =  -9.13297215632269E-14  4.80449583506641E-01
 cg2d: Sum(rhs),rhsMax =  -1.37445610448594E-13  4.80514854915161E-01
 cg2d: Sum(rhs),rhsMax =   2.01227923213310E-14  4.80591270838346E-01
 cg2d: Sum(rhs),rhsMax =  -8.76798633697717E-14  4.80676404643953E-01
 cg2d: Sum(rhs),rhsMax =  -6.20614670765463E-14  4.80769326189875E-01
 cg2d: Sum(rhs),rhsMax =  -3.90659726789977E-14  4.80870267032689E-01
 cg2d: Sum(rhs),rhsMax =   1.37112543541207E-14  4.80972728085723E-01
 cg2d: Sum(rhs),rhsMax =  -8.70553629184201E-14  4.81071390819547E-01
 cg2d: Sum(rhs),rhsMax =  -5.56776846849516E-14  4.81161086843121E-01
 cg2d: Sum(rhs),rhsMax =  -2.69367861349679E-13  4.81239028131753E-01
 cg2d: Sum(rhs),rhsMax =   2.08097428178178E-13  4.81302724863368E-01
 cg2d: Sum(rhs),rhsMax =   1.15962794922098E-13  4.81349732519720E-01
 cg2d: Sum(rhs),rhsMax =   1.31436528327811E-13  4.81378244352770E-01
 cg2d: Sum(rhs),rhsMax =   2.37310171513627E-15  4.81386783916978E-01
 cg2d: Sum(rhs),rhsMax =  -1.70558012158040E-14  4.81373734311567E-01
 cg2d: Sum(rhs),rhsMax =  -3.10029779626575E-14  4.81337866274140E-01
 cg2d: Sum(rhs),rhsMax =  -1.11147202552786E-13  4.81278696798738E-01
 cg2d: Sum(rhs),rhsMax =   7.72437669382953E-14  4.81196051998931E-01
 cg2d: Sum(rhs),rhsMax =   4.39370761995406E-14  4.81090740766241E-01
 cg2d: Sum(rhs),rhsMax =  -1.27634014468470E-13  4.80962086833021E-01
 cg2d: Sum(rhs),rhsMax =   1.22846177674774E-13  4.80812109781409E-01
 cg2d: Sum(rhs),rhsMax =   1.19959597810748E-13  4.80615725695405E-01
 cg2d: Sum(rhs),rhsMax =   5.88418203051333E-15  4.80277782984122E-01
 cg2d: Sum(rhs),rhsMax =   1.21430643318376E-14  4.79923893855905E-01
 cg2d: Sum(rhs),rhsMax =  -1.67060809630470E-13  4.79559230796214E-01
 cg2d: Sum(rhs),rhsMax =  -1.22929444401620E-13  4.79185295807745E-01
 cg2d: Sum(rhs),rhsMax =   4.42285097435047E-14  4.78804794842570E-01
 cg2d: Sum(rhs),rhsMax =  -9.09688990802238E-14  4.78420164272506E-01
 cg2d: Sum(rhs),rhsMax =   1.58206781009085E-13  4.78034542677036E-01
 cg2d: Sum(rhs),rhsMax =  -1.86073378927176E-13  4.77647154459088E-01
 cg2d: Sum(rhs),rhsMax =   9.99755833674953E-14  4.77254969573679E-01
 cg2d: Sum(rhs),rhsMax =   4.84334794492725E-15  4.76861585676247E-01
 cg2d: Sum(rhs),rhsMax =  -1.09759423772005E-13  4.76469200701367E-01
 cg2d: Sum(rhs),rhsMax =  -2.59375854128052E-14  4.76075097613479E-01
 cg2d: Sum(rhs),rhsMax =   1.44800837986736E-13  4.75681469796564E-01
 cg2d: Sum(rhs),rhsMax =   1.24525389999519E-13  4.75290524892568E-01
 cg2d: Sum(rhs),rhsMax =   9.24121890122365E-14  4.75158805167230E-01
 cg2d: Sum(rhs),rhsMax =   5.07788255887931E-14  4.75184444272889E-01
 cg2d: Sum(rhs),rhsMax =  -2.72420974667398E-14  4.75208795420445E-01
 cg2d: Sum(rhs),rhsMax =   1.67366120962242E-13  4.75232162380682E-01
 cg2d: Sum(rhs),rhsMax =  -1.62411750714853E-13  4.75250160742390E-01
 cg2d: Sum(rhs),rhsMax =  -1.06803454968940E-13  4.75263308855946E-01
 cg2d: Sum(rhs),rhsMax =   8.16569034611803E-14  4.75272518323581E-01
 cg2d: Sum(rhs),rhsMax =   8.02136135291676E-15  4.75278758863618E-01
 cg2d: Sum(rhs),rhsMax =  -1.60663149451068E-13  4.75285970178808E-01
 cg2d: Sum(rhs),rhsMax =   1.94844140821715E-14  4.75297078125246E-01
 cg2d: Sum(rhs),rhsMax =  -1.60718660602299E-13  4.75310054744735E-01
 cg2d: Sum(rhs),rhsMax =   1.31700206296159E-14  4.75327929629335E-01
 cg2d: Sum(rhs),rhsMax =   7.95058463509690E-14  4.75350227238781E-01
 cg2d: Sum(rhs),rhsMax =   7.82846010238814E-14  4.75371994330757E-01
 cg2d: Sum(rhs),rhsMax =   1.62286850624582E-13  4.75394022096365E-01
 cg2d: Sum(rhs),rhsMax =   2.36519137608582E-13  4.75416530716601E-01
 cg2d: Sum(rhs),rhsMax =   7.02909952465802E-14  4.75438630226478E-01
 cg2d: Sum(rhs),rhsMax =   2.11219930434936E-14  4.75458938234202E-01
 cg2d: Sum(rhs),rhsMax =   1.65187308276415E-13  4.75478147131265E-01
 cg2d: Sum(rhs),rhsMax =   1.61162749812149E-13  4.75496148791988E-01
 cg2d: Sum(rhs),rhsMax =  -1.20584098262100E-13  4.75512447892485E-01
 cg2d: Sum(rhs),rhsMax =   1.47479251033644E-13  4.75527211010120E-01
 cg2d: Sum(rhs),rhsMax =   9.16072773193832E-14  4.75540736211508E-01
 cg2d: Sum(rhs),rhsMax =  -5.74262859487362E-14  4.75553377484506E-01
 cg2d: Sum(rhs),rhsMax =   1.45966572162592E-13  4.75565501141984E-01
 cg2d: Sum(rhs),rhsMax =  -1.15227272168283E-13  4.75577553680082E-01
 cg2d: Sum(rhs),rhsMax =  -2.25888752147796E-13  4.75589813770363E-01
 cg2d: Sum(rhs),rhsMax =  -2.42403319639095E-13  4.75603913030076E-01
 cg2d: Sum(rhs),rhsMax =   1.36821109997243E-13  4.75621027549521E-01
 cg2d: Sum(rhs),rhsMax =   8.83737527601625E-14  4.75637384561735E-01
 cg2d: Sum(rhs),rhsMax =   1.12146403274949E-13  4.75651755589072E-01
 cg2d: Sum(rhs),rhsMax =  -3.78308495641022E-14  4.75664559941751E-01
 cg2d: Sum(rhs),rhsMax =  -1.19002030452009E-13  4.75676788371617E-01
 cg2d: Sum(rhs),rhsMax =   1.97244998112467E-13  4.75689917981168E-01
 cg2d: Sum(rhs),rhsMax =  -8.16707812489881E-14  4.75708274391246E-01
 cg2d: Sum(rhs),rhsMax =  -9.99200722162641E-16  4.75732590749207E-01
 cg2d: Sum(rhs),rhsMax =   2.08166817117217E-16  4.75763298743481E-01
 cg2d: Sum(rhs),rhsMax =   1.03902997317107E-13  4.75802265920641E-01
 cg2d: Sum(rhs),rhsMax =   1.93220439648201E-13  4.75848631649239E-01
 cg2d: Sum(rhs),rhsMax =  -1.88238313825195E-13  4.75903223100005E-01
 cg2d: Sum(rhs),rhsMax =   1.47257206428719E-13  4.75966620735170E-01
 cg2d: Sum(rhs),rhsMax =  -3.94684285254243E-14  4.76039006693459E-01
 cg2d: Sum(rhs),rhsMax =   4.14945855453652E-15  4.76120801415698E-01
 cg2d: Sum(rhs),rhsMax =  -1.07636122237409E-13  4.76212242643382E-01
 cg2d: Sum(rhs),rhsMax =   3.58879592710082E-14  4.76313116692856E-01
 cg2d: Sum(rhs),rhsMax =  -5.34849942113169E-14  4.76422128892795E-01
 cg2d: Sum(rhs),rhsMax =  -1.19709797630208E-13  4.76535055086423E-01
 cg2d: Sum(rhs),rhsMax =  -1.78912440418344E-13  4.76651745837751E-01
 cg2d: Sum(rhs),rhsMax =   8.73606742501920E-14  4.76772795144928E-01
 cg2d: Sum(rhs),rhsMax =   4.26048085699904E-14  4.76898625592839E-01
 cg2d: Sum(rhs),rhsMax =   2.06029637794813E-13  4.77029868223999E-01
 cg2d: Sum(rhs),rhsMax =  -2.21489493412719E-14  4.77162101568865E-01
 cg2d: Sum(rhs),rhsMax =  -5.46090950237499E-14  4.77295435105584E-01
 cg2d: Sum(rhs),rhsMax =   2.96429547574917E-14  4.77431570341522E-01
 cg2d: Sum(rhs),rhsMax =   6.44623243672982E-14  4.77569748049721E-01
 cg2d: Sum(rhs),rhsMax =   7.60363993990154E-14  4.77712616294355E-01
 cg2d: Sum(rhs),rhsMax =   1.29951605032375E-13  4.77860313006735E-01
 cg2d: Sum(rhs),rhsMax =   1.59289248458094E-13  4.78012344005734E-01
 cg2d: Sum(rhs),rhsMax =   7.04436509124662E-14  4.78164654677356E-01
 cg2d: Sum(rhs),rhsMax =  -1.24761312392252E-13  4.78316796643952E-01
 cg2d: Sum(rhs),rhsMax =   8.23924262149944E-14  4.78468236781512E-01
 cg2d: Sum(rhs),rhsMax =  -2.53408405370692E-14  4.78618591503129E-01
 cg2d: Sum(rhs),rhsMax =  -1.93733917797090E-14  4.78767340036042E-01
 cg2d: Sum(rhs),rhsMax =   1.04957709190501E-13  4.78914164987660E-01
 cg2d: Sum(rhs),rhsMax =   9.61591917203464E-14  4.79058649997907E-01
 cg2d: Sum(rhs),rhsMax =   1.87225235315225E-13  4.79200468260811E-01
 cg2d: Sum(rhs),rhsMax =  -1.10744746706359E-13  4.79339364543042E-01
 cg2d: Sum(rhs),rhsMax =  -1.03944630680530E-13  4.79475100470066E-01
 cg2d: Sum(rhs),rhsMax =   3.11972669919669E-14  4.79609208446914E-01
 cg2d: Sum(rhs),rhsMax =  -1.12243547789603E-13  4.79742489297478E-01
 cg2d: Sum(rhs),rhsMax =   6.29357677084386E-14  4.79874615079536E-01
 cg2d: Sum(rhs),rhsMax =  -2.25222618333021E-13  4.79998398731528E-01
 cg2d: Sum(rhs),rhsMax =   1.26967880653694E-13  4.80114194653704E-01
 cg2d: Sum(rhs),rhsMax =   3.24046345312468E-14  4.80224786066112E-01
 cg2d: Sum(rhs),rhsMax =  -5.27355936696949E-14  4.80330323982638E-01
 cg2d: Sum(rhs),rhsMax =  -4.44366765606219E-14  4.80429783574939E-01
 cg2d: Sum(rhs),rhsMax =   1.76858527822787E-13  4.80522216581400E-01
 cg2d: Sum(rhs),rhsMax =   8.94145868457485E-14  4.80607253851163E-01
 cg2d: Sum(rhs),rhsMax =  -1.09801057135428E-13  4.80685180426881E-01
 cg2d: Sum(rhs),rhsMax =  -8.27116153345742E-15  4.80756230899259E-01
 cg2d: Sum(rhs),rhsMax =   1.78052017574259E-14  4.80820727282467E-01
 cg2d: Sum(rhs),rhsMax =  -1.41830991395864E-14  4.80879005367948E-01
 cg2d: Sum(rhs),rhsMax =   4.47419878923938E-14  4.80931313882825E-01
 cg2d: Sum(rhs),rhsMax =   7.77572450871844E-14  4.80978193998214E-01
 cg2d: Sum(rhs),rhsMax =   9.52016243616072E-14  4.81019932455805E-01
 cg2d: Sum(rhs),rhsMax =   6.08679773250742E-14  4.81057138151707E-01
 cg2d: Sum(rhs),rhsMax =  -2.39253061806721E-13  4.81087248920371E-01
 cg2d: Sum(rhs),rhsMax =   1.89709359332824E-14  4.81110036956054E-01
 cg2d: Sum(rhs),rhsMax =  -1.21680443498917E-13  4.81126584432379E-01
 cg2d: Sum(rhs),rhsMax =  -8.71386296452670E-14  4.81138291874546E-01
 cg2d: Sum(rhs),rhsMax =   9.52155021494150E-14  4.81147437295417E-01
 cg2d: Sum(rhs),rhsMax =   1.28813626432134E-13  4.81157488383489E-01
 cg2d: Sum(rhs),rhsMax =   1.11410880521134E-13  4.81169301659321E-01
 cg2d: Sum(rhs),rhsMax =   1.59816604394791E-13  4.81178810318167E-01
 cg2d: Sum(rhs),rhsMax =  -7.18175519054398E-14  4.81185581952072E-01
 cg2d: Sum(rhs),rhsMax =  -7.54535323110872E-14  4.81191172195233E-01
 cg2d: Sum(rhs),rhsMax =   1.79897763352699E-13  4.81196725715571E-01
 cg2d: Sum(rhs),rhsMax =   1.68018376989210E-13  4.81204067646597E-01
 cg2d: Sum(rhs),rhsMax =  -1.27564625529430E-13  4.81213262702216E-01
 cg2d: Sum(rhs),rhsMax =  -1.79523063081888E-13  4.81221633929076E-01
 cg2d: Sum(rhs),rhsMax =   7.53563877964325E-15  4.81229341241402E-01
 cg2d: Sum(rhs),rhsMax =  -2.37171393635549E-14  4.81236699612616E-01
 cg2d: Sum(rhs),rhsMax =   5.88556980929411E-14  4.81243943066888E-01
 cg2d: Sum(rhs),rhsMax =   3.83026943495679E-15  4.81251039021405E-01
 cg2d: Sum(rhs),rhsMax =  -3.43752803999564E-14  4.81258098711299E-01
 cg2d: Sum(rhs),rhsMax =  -6.46566133966076E-14  4.81265239699104E-01
 cg2d: Sum(rhs),rhsMax =   7.96585020168550E-14  4.81272358662223E-01
 cg2d: Sum(rhs),rhsMax =  -1.63591362678517E-13  4.81281195333970E-01
 cg2d: Sum(rhs),rhsMax =  -6.59750032383499E-14  4.81291863180240E-01
 cg2d: Sum(rhs),rhsMax =   1.21985754830689E-14  4.81304334247820E-01
 cg2d: Sum(rhs),rhsMax =  -6.87366830121050E-14  4.81313920119068E-01
 cg2d: Sum(rhs),rhsMax =   9.89486270697171E-14  4.81318734398783E-01
 cg2d: Sum(rhs),rhsMax =  -4.51028103753970E-15  4.81317742130618E-01
 cg2d: Sum(rhs),rhsMax =  -1.60566004936413E-14  4.81310593630512E-01
 cg2d: Sum(rhs),rhsMax =  -2.30468422124375E-13  4.81297062659578E-01
 cg2d: Sum(rhs),rhsMax =  -4.73232564246473E-15  4.81277206341007E-01
 cg2d: Sum(rhs),rhsMax =   9.60481694178839E-14  4.81251266524439E-01
 cg2d: Sum(rhs),rhsMax =  -3.39450689779142E-14  4.81219287694927E-01
 cg2d: Sum(rhs),rhsMax =  -5.21249710061511E-14  4.81182967673924E-01
 cg2d: Sum(rhs),rhsMax =  -2.48190357154954E-13  4.81142111295633E-01
 cg2d: Sum(rhs),rhsMax =   6.35602681597902E-14  4.81096554178932E-01
 cg2d: Sum(rhs),rhsMax =   7.20257187225570E-14  4.81046317709184E-01
 cg2d: Sum(rhs),rhsMax =   2.82496248615871E-13  4.80991278079304E-01
 cg2d: Sum(rhs),rhsMax =  -1.36030076092197E-13  4.80931570772428E-01
 cg2d: Sum(rhs),rhsMax =  -8.44463388105510E-14  4.80867321702704E-01
 cg2d: Sum(rhs),rhsMax =  -1.13284381875189E-13  4.80798973008927E-01
 cg2d: Sum(rhs),rhsMax =   2.63358779228895E-13  4.80726834462032E-01
 cg2d: Sum(rhs),rhsMax =  -2.29288810160710E-13  4.80651317188897E-01
 cg2d: Sum(rhs),rhsMax =  -4.10782519111308E-15  4.80573286457765E-01
 cg2d: Sum(rhs),rhsMax =  -1.11952114245639E-13  4.80494651511451E-01
 cg2d: Sum(rhs),rhsMax =  -4.00512956133525E-14  4.80416149428158E-01
 cg2d: Sum(rhs),rhsMax =   1.84852133600089E-14  4.80338638818206E-01
 cg2d: Sum(rhs),rhsMax =  -6.95971058561895E-14  4.80262891956674E-01
 cg2d: Sum(rhs),rhsMax =   2.33785213410442E-13  4.80189739225881E-01
 cg2d: Sum(rhs),rhsMax =  -2.19269047363468E-14  4.80119968184639E-01
 cg2d: Sum(rhs),rhsMax =   8.26144708199195E-14  4.80054637089850E-01
 cg2d: Sum(rhs),rhsMax =  -3.44169137633799E-15  4.79993826894206E-01
 cg2d: Sum(rhs),rhsMax =  -9.34252675222069E-14  4.79935902565295E-01
 cg2d: Sum(rhs),rhsMax =   9.93649607039515E-14  4.79881875706935E-01
 cg2d: Sum(rhs),rhsMax =  -3.52495810318487E-15  4.79832940309500E-01
 cg2d: Sum(rhs),rhsMax =   5.84116088830910E-14  4.79790148390720E-01
 cg2d: Sum(rhs),rhsMax =  -1.42663658664333E-13  4.79754575258929E-01
 cg2d: Sum(rhs),rhsMax =   7.13734626955898E-14  4.79727083082743E-01
 cg2d: Sum(rhs),rhsMax =  -1.68892677621102E-14  4.79708592758378E-01
 cg2d: Sum(rhs),rhsMax =  -9.85322934354826E-16  4.79699940221463E-01
 cg2d: Sum(rhs),rhsMax =  -1.46896383945716E-13  4.79702239705790E-01
 cg2d: Sum(rhs),rhsMax =  -1.67532654415936E-13  4.79714941366457E-01
 cg2d: Sum(rhs),rhsMax =   1.17253429188224E-13  4.79738712276057E-01
 cg2d: Sum(rhs),rhsMax =   4.20496970576778E-14  4.79773550049091E-01
 cg2d: Sum(rhs),rhsMax =   3.27793348020577E-14  4.79819242861437E-01
 cg2d: Sum(rhs),rhsMax =   8.24201817906101E-14  4.79873947028107E-01
 cg2d: Sum(rhs),rhsMax =   9.56734691470729E-14  4.79936608738417E-01
 cg2d: Sum(rhs),rhsMax =   1.01224584270199E-13  4.80006831457915E-01
 cg2d: Sum(rhs),rhsMax =   4.92106355665101E-14  4.80084288091431E-01
 cg2d: Sum(rhs),rhsMax =  -5.06955588619462E-14  4.80169377692864E-01
 cg2d: Sum(rhs),rhsMax =   6.13536998983477E-14  4.80261814065418E-01
 cg2d: Sum(rhs),rhsMax =  -4.27019530846451E-14  4.80360765996376E-01
 cg2d: Sum(rhs),rhsMax =  -5.40123501480139E-14  4.80465533674955E-01
 cg2d: Sum(rhs),rhsMax =   1.46063716677247E-13  4.80575391846112E-01
 cg2d: Sum(rhs),rhsMax =  -7.56755769160122E-14  4.80689585294362E-01
 cg2d: Sum(rhs),rhsMax =  -1.12965192755610E-14  4.80807336036851E-01
 cg2d: Sum(rhs),rhsMax =   2.42306175124440E-13  4.80927967145423E-01
 cg2d: Sum(rhs),rhsMax =   5.92581539393677E-15  4.81050745617766E-01
 cg2d: Sum(rhs),rhsMax =   4.71706007587613E-14  4.81175109020249E-01
 cg2d: Sum(rhs),rhsMax =  -1.42524880786254E-14  4.81300471760753E-01
 cg2d: Sum(rhs),rhsMax =   3.50552920025393E-14  4.81418011573593E-01
 cg2d: Sum(rhs),rhsMax =   5.91332538490974E-14  4.81848536867828E-01
 cg2d: Sum(rhs),rhsMax =  -2.06820671699859E-13  4.82296917690698E-01
 cg2d: Sum(rhs),rhsMax =   1.94705362943637E-14  4.82750408178837E-01
 cg2d: Sum(rhs),rhsMax =  -2.90392709878518E-13  4.83208304589787E-01
 cg2d: Sum(rhs),rhsMax =  -6.08540995372664E-14  4.83670013730171E-01
 cg2d: Sum(rhs),rhsMax =   3.20021786848201E-14  4.84133871788074E-01
 cg2d: Sum(rhs),rhsMax =   4.46864767411626E-15  4.84599184270551E-01
 cg2d: Sum(rhs),rhsMax =  -8.43353165080885E-14  4.85065316303762E-01
 cg2d: Sum(rhs),rhsMax =   1.56083479474489E-13  4.85531544253095E-01
 cg2d: Sum(rhs),rhsMax =  -1.10952913523477E-13  4.85997167743341E-01
 cg2d: Sum(rhs),rhsMax =   1.08871245352304E-13  4.86461665491160E-01
 cg2d: Sum(rhs),rhsMax =   7.25391968714462E-14  4.86924530605386E-01
 cg2d: Sum(rhs),rhsMax =  -5.72597524950424E-14  4.87385331111241E-01
 cg2d: Sum(rhs),rhsMax =  -1.97425409353968E-13  4.87844071159653E-01
 cg2d: Sum(rhs),rhsMax =  -1.07136521876328E-13  4.88299223476047E-01
 cg2d: Sum(rhs),rhsMax =   8.26144708199195E-14  4.88751626785228E-01
 cg2d: Sum(rhs),rhsMax =  -1.53779766698392E-13  4.89201329684994E-01
 cg2d: Sum(rhs),rhsMax =  -3.33483241021781E-14  4.89648459025110E-01
 cg2d: Sum(rhs),rhsMax =  -1.85684800868557E-14  4.90093514381586E-01
 cg2d: Sum(rhs),rhsMax =  -7.65221219722889E-14  4.90536921995436E-01
 cg2d: Sum(rhs),rhsMax =   1.14380727112007E-13  4.90977618891795E-01
 cg2d: Sum(rhs),rhsMax =  -2.25652829755063E-14  4.91416757825292E-01
 cg2d: Sum(rhs),rhsMax =  -1.57096557984460E-14  4.91855604574250E-01
 cg2d: Sum(rhs),rhsMax =   8.89149864846672E-14  4.92294161239285E-01
 cg2d: Sum(rhs),rhsMax =   1.80438997077204E-13  4.92732144982727E-01
 cg2d: Sum(rhs),rhsMax =   6.85146384071800E-14  4.93169155513103E-01
 cg2d: Sum(rhs),rhsMax =  -9.03582764166799E-14  4.93605423835182E-01
 cg2d: Sum(rhs),rhsMax =  -5.88973314563646E-14  4.94042150224761E-01
 cg2d: Sum(rhs),rhsMax =   3.99680288865056E-14  4.94480536875745E-01
 cg2d: Sum(rhs),rhsMax =   1.80966353013901E-14  4.94920586754356E-01
 cg2d: Sum(rhs),rhsMax =   2.85466095206743E-14  4.95362191828529E-01
 cg2d: Sum(rhs),rhsMax =   3.19189119579733E-16  4.95805231746000E-01
 cg2d: Sum(rhs),rhsMax =   1.06734066029901E-13  4.96249485302482E-01
 cg2d: Sum(rhs),rhsMax =  -9.81853487402873E-14  4.96694617003286E-01
 cg2d: Sum(rhs),rhsMax =  -1.49324996812084E-14  4.97140268096946E-01
 cg2d: Sum(rhs),rhsMax =   8.30585600297695E-14  4.97585986206004E-01
 cg2d: Sum(rhs),rhsMax =  -2.35769737066960E-13  4.98031462868202E-01
 cg2d: Sum(rhs),rhsMax =  -5.76899639170847E-14  4.98478185648102E-01
 cg2d: Sum(rhs),rhsMax =  -7.05407954271209E-14  4.98925803438515E-01
 cg2d: Sum(rhs),rhsMax =   1.09912079437890E-13  4.99373733681922E-01
 cg2d: Sum(rhs),rhsMax =   1.33643096589253E-14  4.99821729312799E-01
 cg2d: Sum(rhs),rhsMax =   1.31075705844808E-13  5.00269439619155E-01
 cg2d: Sum(rhs),rhsMax =  -1.32296951171895E-13  5.00716262942190E-01
 cg2d: Sum(rhs),rhsMax =   9.77412595304372E-14  5.01161551203854E-01
 cg2d: Sum(rhs),rhsMax =  -2.44942954807925E-14  5.01604502595713E-01
 cg2d: Sum(rhs),rhsMax =   1.26385013565766E-13  5.02043711229568E-01
 cg2d: Sum(rhs),rhsMax =   8.81239525796218E-15  5.02478708087980E-01
 cg2d: Sum(rhs),rhsMax =   7.32608418374525E-14  5.02909038920879E-01
 cg2d: Sum(rhs),rhsMax =   3.68316488419396E-13  5.03334112925491E-01
 cg2d: Sum(rhs),rhsMax =   6.88893386779910E-14  5.03753193650902E-01
 cg2d: Sum(rhs),rhsMax =  -3.98014954328119E-14  5.04166409591573E-01
 cg2d: Sum(rhs),rhsMax =   4.17721413015215E-14  5.04555401203204E-01
 cg2d: Sum(rhs),rhsMax =   1.08649200747379E-13  5.04911516642546E-01
 cg2d: Sum(rhs),rhsMax =  -4.79893902394224E-14  5.05261921177664E-01
 cg2d: Sum(rhs),rhsMax =  -8.95117313604032E-15  5.05607435069799E-01
 cg2d: Sum(rhs),rhsMax =   1.34406374918683E-13  5.05947820075454E-01
 cg2d: Sum(rhs),rhsMax =  -2.02990402264902E-13  5.06283929908199E-01
 cg2d: Sum(rhs),rhsMax =  -2.32522334719931E-13  5.06616816901652E-01
 cg2d: Sum(rhs),rhsMax =   1.04277697587918E-13  5.06947387989872E-01
 cg2d: Sum(rhs),rhsMax =  -1.12132525487141E-14  5.07278039484258E-01
 cg2d: Sum(rhs),rhsMax =  -6.82370826510237E-14  5.07608889417443E-01
 cg2d: Sum(rhs),rhsMax =   2.24792406910979E-13  5.07940396989717E-01
 cg2d: Sum(rhs),rhsMax =   1.51739731890643E-13  5.08274175219392E-01
 cg2d: Sum(rhs),rhsMax =  -1.16434639707563E-14  5.08610655771589E-01
 cg2d: Sum(rhs),rhsMax =  -2.78388423424758E-14  5.08950561144786E-01
 cg2d: Sum(rhs),rhsMax =   6.87505607999128E-14  5.09294807679308E-01
 cg2d: Sum(rhs),rhsMax =   1.78648762449996E-13  5.09644182279163E-01
 cg2d: Sum(rhs),rhsMax =  -1.66533453693773E-13  5.09999301349695E-01
 cg2d: Sum(rhs),rhsMax =  -6.80427936217143E-14  5.10360569122688E-01
 cg2d: Sum(rhs),rhsMax =   6.81260603485612E-14  5.10728234690980E-01
 cg2d: Sum(rhs),rhsMax =  -1.24844579119099E-13  5.11102373773842E-01
 cg2d: Sum(rhs),rhsMax =  -5.46784839627890E-14  5.11482878528007E-01
 cg2d: Sum(rhs),rhsMax =  -1.12923559392186E-13  5.11869454716896E-01
 cg2d: Sum(rhs),rhsMax =   1.52766688188422E-13  5.12261626900611E-01
 cg2d: Sum(rhs),rhsMax =   1.93636773282435E-13  5.12658535708444E-01
 cg2d: Sum(rhs),rhsMax =  -2.07195371970670E-14  5.13059590285661E-01
 cg2d: Sum(rhs),rhsMax =   1.17142406885762E-13  5.13463937281606E-01
 cg2d: Sum(rhs),rhsMax =  -3.86496390447633E-14  5.13870656364684E-01
 cg2d: Sum(rhs),rhsMax =  -1.21014309684142E-13  5.14278735474612E-01
 cg2d: Sum(rhs),rhsMax =   2.90809043512752E-13  5.14687120790820E-01
 cg2d: Sum(rhs),rhsMax =   1.41595069003131E-13  5.15094990790282E-01
 cg2d: Sum(rhs),rhsMax =   1.08191233749722E-13  5.15501266938214E-01
 cg2d: Sum(rhs),rhsMax =  -6.97775170976911E-14  5.15903925601197E-01
 cg2d: Sum(rhs),rhsMax =   7.24836857202149E-14  5.16301834619905E-01
 cg2d: Sum(rhs),rhsMax =   1.24483756636096E-14  5.16693977603057E-01
 cg2d: Sum(rhs),rhsMax =  -4.89192020225460E-14  5.17079086511125E-01
 cg2d: Sum(rhs),rhsMax =   6.66411370531250E-14  5.17455765335007E-01
 cg2d: Sum(rhs),rhsMax =  -1.72778458207290E-14  5.17823294654649E-01
 cg2d: Sum(rhs),rhsMax =   6.55725473919233E-14  5.18181146661241E-01
 cg2d: Sum(rhs),rhsMax =   3.08225667211559E-14  5.18529247362630E-01
 cg2d: Sum(rhs),rhsMax =   5.97161209370256E-14  5.18867219780025E-01
 cg2d: Sum(rhs),rhsMax =   2.02338146237935E-14  5.19194985302638E-01
 cg2d: Sum(rhs),rhsMax =   2.95874436062604E-14  5.19512589197449E-01
 cg2d: Sum(rhs),rhsMax =   9.60342916300760E-14  5.19819986428662E-01
 cg2d: Sum(rhs),rhsMax =  -2.63358779228895E-13  5.20117491035941E-01
 cg2d: Sum(rhs),rhsMax =   1.08593689596148E-13  5.20405522596554E-01
 cg2d: Sum(rhs),rhsMax =  -1.67921232474555E-15  5.20684731643353E-01
 cg2d: Sum(rhs),rhsMax =  -1.48214773787458E-14  5.20955807525009E-01
 cg2d: Sum(rhs),rhsMax =  -3.52357032440409E-14  5.21219609409585E-01
 cg2d: Sum(rhs),rhsMax =  -1.61218260963381E-13  5.21477044126536E-01
 cg2d: Sum(rhs),rhsMax =   7.61474217014779E-14  5.21729019961471E-01
 cg2d: Sum(rhs),rhsMax =   2.46469511466785E-14  5.21976478180869E-01
 cg2d: Sum(rhs),rhsMax =   2.97539770599542E-14  5.22220504245759E-01
 cg2d: Sum(rhs),rhsMax =   1.86378690258948E-13  5.22462282516691E-01
 cg2d: Sum(rhs),rhsMax =  -8.59312621059871E-14  5.22702676703156E-01
(PID.TID 0000.0001) // =======================================================
(PID.TID 0000.0001) // Begin MONITOR dynamic field statistics
(PID.TID 0000.0001) // =======================================================
(PID.TID 0000.0001) %MON time_tsnumber                =                  4320
(PID.TID 0000.0001) %MON time_secondsf                =   5.1840000000000E+06
(PID.TID 0000.0001) %MON dynstat_eta_max              =   1.0980816264685E-01
(PID.TID 0000.0001) %MON dynstat_eta_min              =  -1.5646482266043E-01
(PID.TID 0000.0001) %MON dynstat_eta_mean             =  -7.4138947645164E-17
(PID.TID 0000.0001) %MON dynstat_eta_sd               =   6.1807823385810E-02
(PID.TID 0000.0001) %MON dynstat_eta_del2             =   3.6391055764112E-04
(PID.TID 0000.0001) %MON dynstat_uvel_max             =   3.4435639809952E-01
(PID.TID 0000.0001) %MON dynstat_uvel_min             =  -4.1563731012853E-01
(PID.TID 0000.0001) %MON dynstat_uvel_mean            =  -5.4662719876538E-05
(PID.TID 0000.0001) %MON dynstat_uvel_sd              =   1.0629509035983E-02
(PID.TID 0000.0001) %MON dynstat_uvel_del2            =   3.3676183645095E-04
(PID.TID 0000.0001) %MON dynstat_vvel_max             =   3.7991219676931E-01
(PID.TID 0000.0001) %MON dynstat_vvel_min             =  -2.8592186687116E-01
(PID.TID 0000.0001) %MON dynstat_vvel_mean            =  -7.3366683041513E-06
(PID.TID 0000.0001) %MON dynstat_vvel_sd              =   1.2122800358274E-02
(PID.TID 0000.0001) %MON dynstat_vvel_del2            =   2.1289884406650E-04
(PID.TID 0000.0001) %MON dynstat_wvel_max             =   1.6607179239964E-04
(PID.TID 0000.0001) %MON dynstat_wvel_min             =  -2.1142182518583E-04
(PID.TID 0000.0001) %MON dynstat_wvel_mean            =   7.1783091984608E-23
(PID.TID 0000.0001) %MON dynstat_wvel_sd              =   1.0440903417436E-05
(PID.TID 0000.0001) %MON dynstat_wvel_del2            =   2.3593177462822E-07
(PID.TID 0000.0001) %MON dynstat_theta_max            =   2.6632504330018E+01
(PID.TID 0000.0001) %MON dynstat_theta_min            =   9.9365706315357E-01
(PID.TID 0000.0001) %MON dynstat_theta_mean           =   4.0524552755259E+00
(PID.TID 0000.0001) %MON dynstat_theta_sd             =   4.5715191686831E+00
(PID.TID 0000.0001) %MON dynstat_theta_del2           =   2.8247070627021E-03
(PID.TID 0000.0001) %MON dynstat_salt_max             =   3.4500000000003E+01
(PID.TID 0000.0001) %MON dynstat_salt_min             =   3.4499999999992E+01
(PID.TID 0000.0001) %MON dynstat_salt_mean            =   3.4499999999999E+01
(PID.TID 0000.0001) %MON dynstat_salt_sd              =   8.2797586940579E-13
(PID.TID 0000.0001) %MON dynstat_salt_del2            =   6.8194048367298E-15
(PID.TID 0000.0001) %MON trAdv_CFL_u_max              =   1.3908467847579E-02
(PID.TID 0000.0001) %MON trAdv_CFL_v_max              =   4.2399298830616E-03
(PID.TID 0000.0001) %MON trAdv_CFL_w_max              =   1.8180145846854E-02
(PID.TID 0000.0001) %MON advcfl_uvel_max              =   1.3908291316519E-02
(PID.TID 0000.0001) %MON advcfl_vvel_max              =   4.1006025985102E-03
(PID.TID 0000.0001) %MON advcfl_wvel_max              =   1.7050531521574E-02
(PID.TID 0000.0001) %MON advcfl_W_hf_max              =   1.8180145846854E-02
(PID.TID 0000.0001) %MON pe_b_mean                    =   6.0363246222039E-06
(PID.TID 0000.0001) %MON ke_max                       =   9.9034804495059E-02
(PID.TID 0000.0001) %MON ke_mean                      =   1.2717531529822E-04
(PID.TID 0000.0001) %MON ke_vol                       =   7.5744557036543E+16
(PID.TID 0000.0001) %MON vort_r_min                   =  -8.0291082094767E-06
(PID.TID 0000.0001) %MON vort_r_max                   =   9.3244136640453E-06
(PID.TID 0000.0001) %MON vort_a_mean                  =   9.3555569952476E-05
(PID.TID 0000.0001) %MON vort_a_sd                    =   2.5194935572015E-05
(PID.TID 0000.0001) %MON vort_p_mean                  =   9.7478626213492E-05
(PID.TID 0000.0001) %MON vort_p_sd                    =   3.9512358804520E-05
(PID.TID 0000.0001) %MON surfExpan_theta_mean         =   3.8873946236845E-08
(PID.TID 0000.0001) %MON surfExpan_salt_mean          =   4.2387795254400E-21
(PID.TID 0000.0001) // =======================================================
(PID.TID 0000.0001) // End MONITOR dynamic field statistics
(PID.TID 0000.0001) // =======================================================
(PID.TID 0000.0001) %CHECKPOINT      4320 ckptB
 cg2d: Sum(rhs),rhsMax =  -1.01391117723892E-13  5.22942430973434E-01
 cg2d: Sum(rhs),rhsMax =   1.20736753927986E-15  5.23182190735248E-01
 cg2d: Sum(rhs),rhsMax =   6.52672360601514E-14  5.23422552838428E-01
 cg2d: Sum(rhs),rhsMax =  -3.86635168325711E-14  5.23663988150715E-01
 cg2d: Sum(rhs),rhsMax =  -9.17876885608848E-14  5.23906787173286E-01
 cg2d: Sum(rhs),rhsMax =   7.71743779992562E-14  5.24151076681397E-01
 cg2d: Sum(rhs),rhsMax =   1.67588165567167E-13  5.24396803920934E-01
 cg2d: Sum(rhs),rhsMax =  -8.33083602103102E-14  5.24643788619089E-01
 cg2d: Sum(rhs),rhsMax =  -3.00690028431916E-13  5.24891592058651E-01
 cg2d: Sum(rhs),rhsMax =   4.19386747552153E-14  5.25139812262919E-01
 cg2d: Sum(rhs),rhsMax =   1.13492548692307E-13  5.25387544303368E-01
 cg2d: Sum(rhs),rhsMax =  -4.91690022030866E-14  5.25633916484302E-01
 cg2d: Sum(rhs),rhsMax =  -1.30367938666609E-13  5.25878078612402E-01
 cg2d: Sum(rhs),rhsMax =  -1.85365611748978E-13  5.26119214788547E-01
 cg2d: Sum(rhs),rhsMax =  -2.95874436062604E-14  5.26356522588337E-01
 cg2d: Sum(rhs),rhsMax =  -3.74283937176756E-14  5.26589230435950E-01
 cg2d: Sum(rhs),rhsMax =  -1.11716191852906E-13  5.26816469192625E-01
 cg2d: Sum(rhs),rhsMax =  -1.52669543673767E-13  5.27037396497990E-01
 cg2d: Sum(rhs),rhsMax =  -1.06609165939631E-13  5.27251149353763E-01
 cg2d: Sum(rhs),rhsMax =  -2.55490073541864E-14  5.27457180176870E-01
 cg2d: Sum(rhs),rhsMax =  -9.92816939771046E-14  5.27655104954079E-01
 cg2d: Sum(rhs),rhsMax =   1.84019466331620E-13  5.27844018859417E-01
 cg2d: Sum(rhs),rhsMax =   4.04121180963557E-14  5.28023557110408E-01
 cg2d: Sum(rhs),rhsMax =   2.37310171513627E-14  5.28194369776454E-01
 cg2d: Sum(rhs),rhsMax =  -1.70613523309271E-13  5.28355027564272E-01
 cg2d: Sum(rhs),rhsMax =  -2.92960100622963E-13  5.28506436766803E-01
 cg2d: Sum(rhs),rhsMax =  -5.47478729018280E-14  5.28649007939445E-01
 cg2d: Sum(rhs),rhsMax =  -4.89469575981616E-14  5.28782860294193E-01
 cg2d: Sum(rhs),rhsMax =   3.44307915511877E-14  5.28907996060594E-01
 cg2d: Sum(rhs),rhsMax =  -6.30051566474776E-15  5.29024899699385E-01
 cg2d: Sum(rhs),rhsMax =  -1.61121116448726E-14  5.29135105861633E-01
 cg2d: Sum(rhs),rhsMax =  -7.50788320402762E-15  5.29240260175319E-01
 cg2d: Sum(rhs),rhsMax =  -1.24830701331291E-13  5.29341249311997E-01
 cg2d: Sum(rhs),rhsMax =   8.81100747918140E-14  5.29439291280552E-01
 cg2d: Sum(rhs),rhsMax =  -1.87350135405495E-14  5.29535649793746E-01
 cg2d: Sum(rhs),rhsMax =   2.09832151654155E-14  5.29631830313204E-01
 cg2d: Sum(rhs),rhsMax =   6.65995036897016E-14  5.29729568235813E-01
 cg2d: Sum(rhs),rhsMax =  -4.68236560635660E-14  5.29831082739482E-01
 cg2d: Sum(rhs),rhsMax =  -7.02632396709646E-14  5.29938202002495E-01
 cg2d: Sum(rhs),rhsMax =  -1.03445030319449E-13  5.30051655457710E-01
 cg2d: Sum(rhs),rhsMax =   7.25669524470618E-14  5.30170868535670E-01
 cg2d: Sum(rhs),rhsMax =   1.77635683940025E-14  5.30294874019028E-01
 cg2d: Sum(rhs),rhsMax =  -4.59771110072893E-14  5.30424192486741E-01
 cg2d: Sum(rhs),rhsMax =  -5.55111512312578E-14  5.30559329720738E-01
 cg2d: Sum(rhs),rhsMax =   7.71605002114484E-15  5.30700583109320E-01
 cg2d: Sum(rhs),rhsMax =   9.32448562807053E-14  5.30848171760444E-01
 cg2d: Sum(rhs),rhsMax =  -1.30506716544687E-13  5.31002190812389E-01
 cg2d: Sum(rhs),rhsMax =  -4.03704847329323E-14  5.31162713667629E-01
 cg2d: Sum(rhs),rhsMax =  -2.76001443921814E-13  5.31329689005406E-01
 cg2d: Sum(rhs),rhsMax =   9.89625048575249E-14  5.31503183515995E-01
 cg2d: Sum(rhs),rhsMax =   1.82492909672760E-14  5.31682994339828E-01
 cg2d: Sum(rhs),rhsMax =  -3.72896158395974E-14  5.31868476542389E-01
 cg2d: Sum(rhs),rhsMax =   1.15449316773208E-13  5.32059191647225E-01
 cg2d: Sum(rhs),rhsMax =  -1.02085007114283E-13  5.32254846541275E-01
 cg2d: Sum(rhs),rhsMax =   7.97556465315097E-14  5.32433979536705E-01
 cg2d: Sum(rhs),rhsMax =  -2.33452146503055E-13  5.32616748667726E-01
 cg2d: Sum(rhs),rhsMax =   5.07788255887931E-14  5.32803437372157E-01
 cg2d: Sum(rhs),rhsMax =  -1.79578574233119E-14  5.32993483028711E-01
 cg2d: Sum(rhs),rhsMax =   1.29410371307870E-13  5.33186672479329E-01
 cg2d: Sum(rhs),rhsMax =  -1.13700715509424E-13  5.33382501352165E-01
 cg2d: Sum(rhs),rhsMax =   5.52613510507172E-14  5.33580603697898E-01
 cg2d: Sum(rhs),rhsMax =   3.06032976737924E-13  5.33781087295096E-01
 cg2d: Sum(rhs),rhsMax =  -4.64628335805628E-14  5.33983827252403E-01
 cg2d: Sum(rhs),rhsMax =  -1.08052455871643E-13  5.34188672179673E-01
 cg2d: Sum(rhs),rhsMax =   8.10601585854442E-14  5.34363387927175E-01
 cg2d: Sum(rhs),rhsMax =   1.41012201915203E-13  5.34539556583110E-01
 cg2d: Sum(rhs),rhsMax =   3.32650573753313E-14  5.34718361630742E-01
 cg2d: Sum(rhs),rhsMax =   1.54085078030164E-13  5.34899476610134E-01
 cg2d: Sum(rhs),rhsMax =   7.38575867131885E-14  5.35082847990454E-01
 cg2d: Sum(rhs),rhsMax =   4.54219994949767E-14  5.35268464537093E-01
 cg2d: Sum(rhs),rhsMax =   1.35211286611536E-13  5.35456274562191E-01
 cg2d: Sum(rhs),rhsMax =   5.47201173262124E-14  5.35646203785415E-01
 cg2d: Sum(rhs),rhsMax =   7.56339435525888E-14  5.35837914345141E-01
 cg2d: Sum(rhs),rhsMax =   4.57828219779799E-14  5.36031065633507E-01
 cg2d: Sum(rhs),rhsMax =  -4.23411306016419E-14  5.36225489248068E-01
 cg2d: Sum(rhs),rhsMax =   2.19491091968393E-13  5.36421022659742E-01
 cg2d: Sum(rhs),rhsMax =  -7.56200657647810E-14  5.36617455459581E-01
 cg2d: Sum(rhs),rhsMax =   9.11631881095332E-14  5.36814538921260E-01
 cg2d: Sum(rhs),rhsMax =   1.55653268052447E-13  5.37011903485804E-01
 cg2d: Sum(rhs),rhsMax =  -9.33975119465913E-15  5.37209187208339E-01
 cg2d: Sum(rhs),rhsMax =  -1.13242748511766E-14  5.37405952772052E-01
 cg2d: Sum(rhs),rhsMax =   1.53210777398272E-14  5.37601253990272E-01
 cg2d: Sum(rhs),rhsMax =   7.09710068491631E-14  5.37794229537949E-01
 cg2d: Sum(rhs),rhsMax =  -7.36910532594948E-14  5.37984340072642E-01
 cg2d: Sum(rhs),rhsMax =   8.69859739793810E-14  5.38171837356068E-01
 cg2d: Sum(rhs),rhsMax =  -1.85573778566095E-13  5.38356151467577E-01
 cg2d: Sum(rhs),rhsMax =   1.22166166072191E-13  5.38536657786441E-01
 cg2d: Sum(rhs),rhsMax =  -6.66688926287407E-14  5.38712765134122E-01
 cg2d: Sum(rhs),rhsMax =   1.11341491582095E-13  5.38883920080468E-01
 cg2d: Sum(rhs),rhsMax =   1.01113561967736E-13  5.39049694999595E-01
 cg2d: Sum(rhs),rhsMax =  -1.50823797895328E-13  5.39209778178502E-01
 cg2d: Sum(rhs),rhsMax =  -1.26773591624385E-13  5.39364045596827E-01
 cg2d: Sum(rhs),rhsMax =   6.10622663543836E-16  5.39511655024494E-01
 cg2d: Sum(rhs),rhsMax =   1.40248923585773E-13  5.39652108968037E-01
 cg2d: Sum(rhs),rhsMax =   7.76323449969141E-14  5.39785140890487E-01
 cg2d: Sum(rhs),rhsMax =   5.75095526755831E-14  5.39910449011061E-01
 cg2d: Sum(rhs),rhsMax =  -2.52825538282764E-13  5.40027663698728E-01
 cg2d: Sum(rhs),rhsMax =  -5.49005285677140E-14  5.40136805537955E-01
 cg2d: Sum(rhs),rhsMax =  -1.22693522008888E-13  5.40238205300361E-01
 cg2d: Sum(rhs),rhsMax =  -5.64132074387658E-14  5.40332448877091E-01
 cg2d: Sum(rhs),rhsMax =   8.06438249512098E-14  5.40418662050442E-01
 cg2d: Sum(rhs),rhsMax =  -1.08107967022875E-13  5.40495663030674E-01
 cg2d: Sum(rhs),rhsMax =  -2.70339306496226E-14  5.40563866408879E-01
 cg2d: Sum(rhs),rhsMax =  -2.02671213145322E-13  5.40623923093383E-01
 cg2d: Sum(rhs),rhsMax =  -2.49938958418738E-14  5.40676693396975E-01
 cg2d: Sum(rhs),rhsMax =   3.30985239216375E-14  5.40722792361219E-01
 cg2d: Sum(rhs),rhsMax =  -9.01223540239471E-14  5.40762902309155E-01
 cg2d: Sum(rhs),rhsMax =  -5.31796828795450E-14  5.40797608198143E-01
 cg2d: Sum(rhs),rhsMax =  -2.05391259555654E-14  5.40827456969535E-01
 cg2d: Sum(rhs),rhsMax =  -1.28674848554056E-13  5.40852203874538E-01
 cg2d: Sum(rhs),rhsMax =   4.59909887950971E-14  5.40872464804158E-01
 cg2d: Sum(rhs),rhsMax =   8.64863736182997E-14  5.40891741673935E-01
 cg2d: Sum(rhs),rhsMax =   8.96505092384814E-15  5.40905357246034E-01
 cg2d: Sum(rhs),rhsMax =   1.33920652345410E-13  5.40913750662204E-01
 cg2d: Sum(rhs),rhsMax =  -7.87425680215392E-14  5.40918145962923E-01
 cg2d: Sum(rhs),rhsMax =  -1.25871535416877E-13  5.40918385799543E-01
 cg2d: Sum(rhs),rhsMax =   4.65461003074097E-14  5.40914046235554E-01
 cg2d: Sum(rhs),rhsMax =   2.54865573090512E-13  5.40906913164825E-01
 cg2d: Sum(rhs),rhsMax =  -1.14602771716932E-13  5.40727022025911E-01
 cg2d: Sum(rhs),rhsMax =   7.17342851785929E-14  5.40459086344840E-01
 cg2d: Sum(rhs),rhsMax =  -2.04530836711569E-13  5.40184301046892E-01
 cg2d: Sum(rhs),rhsMax =   1.64243618705484E-13  5.39908458437897E-01
 cg2d: Sum(rhs),rhsMax =  -2.01338945515772E-13  5.39625484947187E-01
 cg2d: Sum(rhs),rhsMax =   8.03940247706691E-14  5.39341123949431E-01
 cg2d: Sum(rhs),rhsMax =   1.38222766565832E-14  5.39050047366429E-01
 cg2d: Sum(rhs),rhsMax =   4.23411306016419E-14  5.38756863011987E-01
 cg2d: Sum(rhs),rhsMax =   8.55843174107918E-14  5.38457941809821E-01
 cg2d: Sum(rhs),rhsMax =  -2.34118280317830E-14  5.38160784290259E-01
 cg2d: Sum(rhs),rhsMax =  -5.09176034668712E-14  5.37859349813562E-01
 cg2d: Sum(rhs),rhsMax =   7.35106420179932E-14  5.37556447634204E-01
 cg2d: Sum(rhs),rhsMax =  -5.37486721796654E-14  5.37250500661320E-01
 cg2d: Sum(rhs),rhsMax =  -9.53681578153009E-14  5.36943350699791E-01
 cg2d: Sum(rhs),rhsMax =   8.05328026487473E-14  5.36634078032870E-01
 cg2d: Sum(rhs),rhsMax =  -6.44206910038747E-14  5.36323973919935E-01
 cg2d: Sum(rhs),rhsMax =   1.63119517893051E-13  5.36012941616005E-01
 cg2d: Sum(rhs),rhsMax =   4.62685445512534E-14  5.35701824761564E-01
 cg2d: Sum(rhs),rhsMax =  -1.01682551267857E-13  5.35390967148169E-01
 cg2d: Sum(rhs),rhsMax =   2.15411022352896E-13  5.35079743351173E-01
 cg2d: Sum(rhs),rhsMax =  -6.15202333520415E-14  5.34766652807217E-01
 cg2d: Sum(rhs),rhsMax =  -1.49463774690162E-14  5.34452294478443E-01
 cg2d: Sum(rhs),rhsMax =   2.48689957516035E-14  5.34137969208888E-01
 cg2d: Sum(rhs),rhsMax =  -1.62037050444042E-13  5.33824856581856E-01
 cg2d: Sum(rhs),rhsMax =   6.43374242770278E-14  5.33513530374417E-01
 cg2d: Sum(rhs),rhsMax =  -6.89726054048379E-15  5.33205023441645E-01
 cg2d: Sum(rhs),rhsMax =   1.17378329278495E-13  5.32900236109028E-01
 cg2d: Sum(rhs),rhsMax =  -1.95315985607181E-13  5.32598732962118E-01
 cg2d: Sum(rhs),rhsMax =  -3.84414722276460E-15  5.32301715001117E-01
 cg2d: Sum(rhs),rhsMax =  -5.74679193121597E-14  5.32009854927733E-01
 cg2d: Sum(rhs),rhsMax =   1.76941794549634E-14  5.31723900781897E-01
 cg2d: Sum(rhs),rhsMax =  -6.45317133063372E-14  5.31444481182518E-01
 cg2d: Sum(rhs),rhsMax =  -9.16072773193832E-14  5.31169177535643E-01
 cg2d: Sum(rhs),rhsMax =   1.89806503847478E-13  5.30899658906628E-01
 cg2d: Sum(rhs),rhsMax =  -2.47427078825524E-13  5.30634612012719E-01
 cg2d: Sum(rhs),rhsMax =  -6.76958489265189E-14  5.30377187580017E-01
 cg2d: Sum(rhs),rhsMax =  -1.03986264043954E-13  5.30125282696410E-01
 cg2d: Sum(rhs),rhsMax =  -5.69544411632705E-14  5.29881440125995E-01
 cg2d: Sum(rhs),rhsMax =   2.57432963834958E-14  5.29647298812179E-01
 cg2d: Sum(rhs),rhsMax =   2.17187379192296E-14  5.29423390733846E-01
 cg2d: Sum(rhs),rhsMax =   7.26363413861009E-14  5.29208960982970E-01
 cg2d: Sum(rhs),rhsMax =   1.96370697480575E-14  5.29004030473175E-01
 cg2d: Sum(rhs),rhsMax =  -8.16569034611803E-14  5.28807263026674E-01
 cg2d: Sum(rhs),rhsMax =  -2.68840505412982E-13  5.28616762769039E-01
 cg2d: Sum(rhs),rhsMax =   2.03725925018716E-14  5.28427403985960E-01
 cg2d: Sum(rhs),rhsMax =   1.32741040381745E-13  5.28238734517950E-01
 cg2d: Sum(rhs),rhsMax =  -1.14228071446121E-13  5.28049702201332E-01
 cg2d: Sum(rhs),rhsMax =   1.83034143397265E-13  5.27859362702594E-01
 cg2d: Sum(rhs),rhsMax =   4.27435864480685E-14  5.27667096786415E-01
 cg2d: Sum(rhs),rhsMax =   1.35585986882347E-13  5.27473067635226E-01
 cg2d: Sum(rhs),rhsMax =   2.23016050071578E-13  5.27274649664030E-01
 cg2d: Sum(rhs),rhsMax =   1.29299349005407E-13  5.27072765661298E-01
 cg2d: Sum(rhs),rhsMax =   1.75123804346811E-13  5.26866715923486E-01
 cg2d: Sum(rhs),rhsMax =  -4.75453010295723E-14  5.26655987496611E-01
 cg2d: Sum(rhs),rhsMax =   8.57647286522933E-14  5.26443486572941E-01
 cg2d: Sum(rhs),rhsMax =   1.26690324897538E-13  5.26226029021479E-01
 cg2d: Sum(rhs),rhsMax =   1.59205981731247E-13  5.26003715264276E-01
 cg2d: Sum(rhs),rhsMax =  -5.35266275747404E-14  5.25777312101809E-01
 cg2d: Sum(rhs),rhsMax =   2.52853293858379E-14  5.25544747920241E-01
 cg2d: Sum(rhs),rhsMax =   1.34336985979644E-13  5.25304236765910E-01
 cg2d: Sum(rhs),rhsMax =  -2.11039519193434E-13  5.25055887941542E-01
 cg2d: Sum(rhs),rhsMax =   7.94780907753534E-14  5.24799529665029E-01
 cg2d: Sum(rhs),rhsMax =   1.13992149053388E-13  5.24537166947900E-01
 cg2d: Sum(rhs),rhsMax =   8.35442826030430E-14  5.24268184557061E-01
 cg2d: Sum(rhs),rhsMax =  -1.38777878078145E-16  5.23993857508768E-01
 cg2d: Sum(rhs),rhsMax =  -3.63181706930504E-14  5.23714492316129E-01
 cg2d: Sum(rhs),rhsMax =  -5.25413046403855E-14  5.23430959172855E-01
 cg2d: Sum(rhs),rhsMax =   8.30030488785383E-14  5.23143258313472E-01
 cg2d: Sum(rhs),rhsMax =   4.47836212558173E-14  5.22852343050146E-01
 cg2d: Sum(rhs),rhsMax =  -1.04416475465996E-13  5.22558790188345E-01
 cg2d: Sum(rhs),rhsMax =   1.41733846881209E-13  5.22264003717465E-01
 cg2d: Sum(rhs),rhsMax =  -7.71049890602171E-14  5.21966702809290E-01
 cg2d: Sum(rhs),rhsMax =  -1.69100844438219E-13  5.21666595072879E-01
 cg2d: Sum(rhs),rhsMax =  -5.63021851363033E-14  5.21364248222960E-01
 cg2d: Sum(rhs),rhsMax =  -7.45931094670027E-14  5.21060202919882E-01
 cg2d: Sum(rhs),rhsMax =   3.28487237410968E-14  5.20755229317825E-01
 cg2d: Sum(rhs),rhsMax =  -1.35169653248113E-13  5.20449854109192E-01
 cg2d: Sum(rhs),rhsMax =  -9.21901444073114E-14  5.20144485907466E-01
 cg2d: Sum(rhs),rhsMax =   2.76861866765898E-14  5.19839369257764E-01
 cg2d: Sum(rhs),rhsMax =  -3.91492394058446E-14  5.19534623602240E-01
 cg2d: Sum(rhs),rhsMax =  -6.10622663543836E-15  5.19230230871599E-01
 cg2d: Sum(rhs),rhsMax =  -5.15004705547994E-14  5.18923826271980E-01
 cg2d: Sum(rhs),rhsMax =  -1.01724184631280E-14  5.18614751260657E-01
 cg2d: Sum(rhs),rhsMax =   6.06320549323414E-14  5.18302470601726E-01
 cg2d: Sum(rhs),rhsMax =  -1.38125622051177E-13  5.17986422517827E-01
 cg2d: Sum(rhs),rhsMax =   5.61911628338407E-14  5.17666034258236E-01
 cg2d: Sum(rhs),rhsMax =   5.30964161526981E-14  5.17340851840656E-01
 cg2d: Sum(rhs),rhsMax =   1.81507586738405E-13  5.17010478910505E-01
 cg2d: Sum(rhs),rhsMax =   1.93373095314087E-13  5.16674508819366E-01
 cg2d: Sum(rhs),rhsMax =  -1.79259385113539E-13  5.16332664678307E-01
 cg2d: Sum(rhs),rhsMax =   1.06734066029901E-13  5.15984582267859E-01
 cg2d: Sum(rhs),rhsMax =  -1.02487462960710E-13  5.15630015986930E-01
 cg2d: Sum(rhs),rhsMax =  -1.13173359572727E-13  5.15268827426206E-01
 cg2d: Sum(rhs),rhsMax =   1.69114722226027E-13  5.14901545039303E-01
 cg2d: Sum(rhs),rhsMax =  -7.00273172782317E-14  5.14526658807030E-01
 cg2d: Sum(rhs),rhsMax =  -1.92609816984657E-13  5.14145452516291E-01
 cg2d: Sum(rhs),rhsMax =   7.32747196252603E-14  5.13757964811114E-01
 cg2d: Sum(rhs),rhsMax =   1.98049909805320E-13  5.13364476438820E-01
 cg2d: Sum(rhs),rhsMax =   1.06220587881012E-13  5.12965350267552E-01
 cg2d: Sum(rhs),rhsMax =   1.27675647831893E-15  5.12561166921303E-01
 cg2d: Sum(rhs),rhsMax =  -1.12382325667681E-13  5.12152167541302E-01
 cg2d: Sum(rhs),rhsMax =  -1.00322528062691E-13  5.11738925073952E-01
 cg2d: Sum(rhs),rhsMax =  -1.78176917664530E-13  5.11321992775817E-01
 cg2d: Sum(rhs),rhsMax =   9.11215547461097E-14  5.10902018620186E-01
 cg2d: Sum(rhs),rhsMax =  -1.74915637529693E-13  5.10479273576476E-01
 cg2d: Sum(rhs),rhsMax =   7.15122405736679E-14  5.10055512368117E-01
 cg2d: Sum(rhs),rhsMax =   1.10675357767320E-13  5.09629643468986E-01
 cg2d: Sum(rhs),rhsMax =  -2.22738494315422E-14  5.09203599298540E-01
 cg2d: Sum(rhs),rhsMax =   1.80827575135822E-14  5.08776624519926E-01
 cg2d: Sum(rhs),rhsMax =  -3.12250225675825E-15  5.08349899879409E-01
 cg2d: Sum(rhs),rhsMax =   1.07136521876328E-14  5.07923268383791E-01
 cg2d: Sum(rhs),rhsMax =  -2.22585838649536E-13  5.07496958404036E-01
 cg2d: Sum(rhs),rhsMax =   1.24802945755675E-13  5.07070886032150E-01
 cg2d: Sum(rhs),rhsMax =   9.12464548363801E-14  5.06645012803461E-01
 cg2d: Sum(rhs),rhsMax =   5.71903635560034E-14  5.06219154328298E-01
 cg2d: Sum(rhs),rhsMax =   1.86656246015104E-14  5.05793075379534E-01
 cg2d: Sum(rhs),rhsMax =  -6.36990460378684E-15  5.05366415806734E-01
 cg2d: Sum(rhs),rhsMax =   4.89053242347381E-14  5.04938808081094E-01
 cg2d: Sum(rhs),rhsMax =  -9.22317777707349E-14  5.04509859630793E-01
 cg2d: Sum(rhs),rhsMax =   1.08885123140112E-13  5.04079070493485E-01
 cg2d: Sum(rhs),rhsMax =  -7.09154956979319E-14  5.03645966806690E-01
 cg2d: Sum(rhs),rhsMax =   7.01799729441177E-14  5.03210211465698E-01
 cg2d: Sum(rhs),rhsMax =  -1.34336985979644E-14  5.02771412486355E-01
 cg2d: Sum(rhs),rhsMax =   2.77861067488061E-13  5.02329170972784E-01
 cg2d: Sum(rhs),rhsMax =   2.41681674673089E-13  5.01882926932726E-01
 cg2d: Sum(rhs),rhsMax =   1.22110654920959E-13  5.01432307415275E-01
 cg2d: Sum(rhs),rhsMax =  -1.22610255282041E-13  5.00977152967347E-01
 cg2d: Sum(rhs),rhsMax =   2.25333640635483E-13  5.00517455975369E-01
 cg2d: Sum(rhs),rhsMax =   2.94070323647588E-14  5.00053216939429E-01
 cg2d: Sum(rhs),rhsMax =  -5.31241717283137E-14  4.99584821228033E-01
 cg2d: Sum(rhs),rhsMax =   1.09301456774347E-13  4.99112588430456E-01
 cg2d: Sum(rhs),rhsMax =   8.21287482466460E-14  4.98636946131157E-01
 cg2d: Sum(rhs),rhsMax =  -7.19702075713258E-14  4.98158390474731E-01
 cg2d: Sum(rhs),rhsMax =  -2.63067345684931E-13  4.97677495764561E-01
 cg2d: Sum(rhs),rhsMax =  -1.02695629777827E-15  4.97195036471905E-01
 cg2d: Sum(rhs),rhsMax =  -1.25691124175376E-13  4.96711948932125E-01
 cg2d: Sum(rhs),rhsMax =  -1.05762620883354E-13  4.96229107114419E-01
 cg2d: Sum(rhs),rhsMax =   8.42520497812416E-14  4.95747514135353E-01
 cg2d: Sum(rhs),rhsMax =  -1.63827285071250E-13  4.95268132834721E-01
 cg2d: Sum(rhs),rhsMax =   1.23373533611471E-14  4.94788634040622E-01
 cg2d: Sum(rhs),rhsMax =  -3.83582055007992E-14  4.94309227225861E-01
 cg2d: Sum(rhs),rhsMax =   9.09272657168003E-14  4.93831149309725E-01
 cg2d: Sum(rhs),rhsMax =  -1.26149091173033E-14  4.93355360898649E-01
 cg2d: Sum(rhs),rhsMax =   1.55112034327942E-13  4.92882683759541E-01
 cg2d: Sum(rhs),rhsMax =   6.68909372336657E-14  4.92414143993934E-01
 cg2d: Sum(rhs),rhsMax =   1.54459778300975E-14  4.91950914421254E-01
 cg2d: Sum(rhs),rhsMax =   6.86395384974503E-14  4.91494349998821E-01
 cg2d: Sum(rhs),rhsMax =  -4.34097202628436E-14  4.91045531887589E-01
 cg2d: Sum(rhs),rhsMax =  -1.08149600386298E-13  4.90605342331859E-01
 cg2d: Sum(rhs),rhsMax =  -5.08898478912556E-14  4.90174548009671E-01
 cg2d: Sum(rhs),rhsMax =   2.07056594092592E-14  4.89753757733658E-01
 cg2d: Sum(rhs),rhsMax =  -2.01227923213310E-15  4.89343301730868E-01
 cg2d: Sum(rhs),rhsMax =   2.73642219994485E-13  4.88943347824556E-01
 cg2d: Sum(rhs),rhsMax =   7.58143547940904E-14  4.88553857818631E-01
 cg2d: Sum(rhs),rhsMax =  -3.51246809415784E-14  4.88174566155811E-01
 cg2d: Sum(rhs),rhsMax =  -6.67521593555875E-15  4.87803704397178E-01
 cg2d: Sum(rhs),rhsMax =  -1.66727742723083E-13  4.87436786134510E-01
 cg2d: Sum(rhs),rhsMax =  -1.39055433834301E-14  4.87072537098659E-01
 cg2d: Sum(rhs),rhsMax =   9.72694147449715E-14  4.86709202207347E-01
 cg2d: Sum(rhs),rhsMax =   7.93809462606987E-14  4.86346373779739E-01
 cg2d: Sum(rhs),rhsMax =  -7.86037901434611E-14  4.85982876966382E-01
 cg2d: Sum(rhs),rhsMax =  -1.76941794549634E-14  4.85617476190316E-01
 cg2d: Sum(rhs),rhsMax =  -2.40196751377653E-13  4.85248540480097E-01
 cg2d: Sum(rhs),rhsMax =   6.61970478432750E-15  4.84874687663743E-01
 cg2d: Sum(rhs),rhsMax =  -1.39110944985532E-13  4.84495005471529E-01
 cg2d: Sum(rhs),rhsMax =   1.95621296938953E-13  4.84108576108592E-01
 cg2d: Sum(rhs),rhsMax =   4.98490138056695E-14  4.83714511531008E-01
 cg2d: Sum(rhs),rhsMax =   1.86531345924834E-13  4.83312438849377E-01
 cg2d: Sum(rhs),rhsMax =  -2.27109997474884E-13  4.82901955527136E-01
 cg2d: Sum(rhs),rhsMax =  -4.99045249569008E-14  4.82482856506027E-01
 cg2d: Sum(rhs),rhsMax =   9.13019659876113E-14  4.82055151968546E-01
 cg2d: Sum(rhs),rhsMax =  -6.22141227424322E-14  4.81619167735778E-01
 cg2d: Sum(rhs),rhsMax =   6.76264599874798E-14  4.81175523231837E-01
 cg2d: Sum(rhs),rhsMax =   4.73648897880707E-14  4.80724645882135E-01
 cg2d: Sum(rhs),rhsMax =  -5.96883653614100E-14  4.80267060535000E-01
 cg2d: Sum(rhs),rhsMax =  -8.98864316312142E-14  4.79803388214591E-01
 cg2d: Sum(rhs),rhsMax =   3.48193696098065E-14  4.79334056816866E-01
 cg2d: Sum(rhs),rhsMax =   2.02782235447785E-13  4.78859535660599E-01
 cg2d: Sum(rhs),rhsMax =   3.85663723179164E-14  4.78640005276634E-01
 cg2d: Sum(rhs),rhsMax =   1.27814425709971E-14  4.78748120957217E-01
 cg2d: Sum(rhs),rhsMax =  -8.27116153345742E-14  4.78850687991904E-01
 cg2d: Sum(rhs),rhsMax =   1.41026079703011E-13  4.78947266053945E-01
 cg2d: Sum(rhs),rhsMax =   5.09869924059103E-14  4.79037493847091E-01
 cg2d: Sum(rhs),rhsMax =  -6.39072128549856E-14  4.79128917116110E-01
 cg2d: Sum(rhs),rhsMax =   2.46427878103361E-13  4.79219740953199E-01
 cg2d: Sum(rhs),rhsMax =  -1.74957270893117E-13  4.79303035890636E-01
 cg2d: Sum(rhs),rhsMax =  -5.86891646392473E-14  4.79378740411635E-01
 cg2d: Sum(rhs),rhsMax =  -1.46840872794485E-13  4.79446736509156E-01
 cg2d: Sum(rhs),rhsMax =   3.95100618888478E-14  4.79507023250396E-01
 cg2d: Sum(rhs),rhsMax =  -8.05466804365551E-14  4.79560020823942E-01
 cg2d: Sum(rhs),rhsMax =  -3.24740234702858E-14  4.79606172290395E-01
 cg2d: Sum(rhs),rhsMax =   9.12880881998035E-14  4.79645995980817E-01
 cg2d: Sum(rhs),rhsMax =  -6.57252030578093E-14  4.79680143965044E-01
 cg2d: Sum(rhs),rhsMax =   2.90184543061400E-14  4.79709360149064E-01
 cg2d: Sum(rhs),rhsMax =  -1.21402887742761E-13  4.79734422749968E-01
 cg2d: Sum(rhs),rhsMax =   7.36910532594948E-14  4.79756271686673E-01
 cg2d: Sum(rhs),rhsMax =  -1.51600954012565E-13  4.79775864793087E-01
 cg2d: Sum(rhs),rhsMax =   4.72399896978004E-14  4.79794280480489E-01
 cg2d: Sum(rhs),rhsMax =   1.62272972836774E-13  4.79811864921190E-01
 cg2d: Sum(rhs),rhsMax =   1.24247834243363E-13  4.79829744535069E-01
 cg2d: Sum(rhs),rhsMax =  -4.35623759287296E-14  4.79848703571711E-01
 cg2d: Sum(rhs),rhsMax =   5.45397060847108E-15  4.79869436292918E-01
 cg2d: Sum(rhs),rhsMax =   9.17182996218457E-14  4.79892637781976E-01
 cg2d: Sum(rhs),rhsMax =   1.61981539292810E-13  4.79918841054117E-01
 cg2d: Sum(rhs),rhsMax =   2.59098298371896E-13  4.79948499316404E-01
 cg2d: Sum(rhs),rhsMax =   1.14935838624319E-13  4.79982621530064E-01
 cg2d: Sum(rhs),rhsMax =  -6.71823707776298E-14  4.80021650935794E-01
 cg2d: Sum(rhs),rhsMax =  -3.96627175547337E-14  4.80065243197924E-01
 cg2d: Sum(rhs),rhsMax =  -4.17443857259059E-14  4.80112946711642E-01
 cg2d: Sum(rhs),rhsMax =   1.46577194826136E-13  4.80164288206061E-01
 cg2d: Sum(rhs),rhsMax =  -9.99894611553032E-14  4.80218599711835E-01
 cg2d: Sum(rhs),rhsMax =   1.52683421461575E-13  4.80276613139713E-01
 cg2d: Sum(rhs),rhsMax =   9.11631881095332E-14  4.80337967936712E-01
 cg2d: Sum(rhs),rhsMax =   4.12447853648246E-14  4.80402167953232E-01
 cg2d: Sum(rhs),rhsMax =  -9.02333763264096E-14  4.80468693989614E-01
 cg2d: Sum(rhs),rhsMax =   7.56339435525888E-14  4.80536930818206E-01
 cg2d: Sum(rhs),rhsMax =   4.66293670342566E-15  4.80606284526412E-01
 cg2d: Sum(rhs),rhsMax =  -5.59552404411079E-14  4.80676004244710E-01
 cg2d: Sum(rhs),rhsMax =  -1.28785870856518E-14  4.80745489824035E-01
 cg2d: Sum(rhs),rhsMax =  -5.18890486134183E-14  4.80814059876570E-01
 cg2d: Sum(rhs),rhsMax =   1.98327465561476E-13  4.80881381839500E-01
 cg2d: Sum(rhs),rhsMax =  -1.57054924621036E-13  4.80946605152511E-01
 cg2d: Sum(rhs),rhsMax =  -3.22936122287842E-14  4.81009077349980E-01
 cg2d: Sum(rhs),rhsMax =   2.11636264069170E-14  4.81069125227279E-01
 cg2d: Sum(rhs),rhsMax =  -2.74363864960492E-14  4.81126251792736E-01
 cg2d: Sum(rhs),rhsMax =   2.37726505147862E-14  4.81179807022203E-01
 cg2d: Sum(rhs),rhsMax =   1.08912878715728E-13  4.81229627792370E-01
 cg2d: Sum(rhs),rhsMax =   1.33726363316100E-13  4.81273022574669E-01
 cg2d: Sum(rhs),rhsMax =  -3.23630011678233E-14  4.81310682581555E-01
 cg2d: Sum(rhs),rhsMax =   2.28927987677707E-13  4.81343099066609E-01
 cg2d: Sum(rhs),rhsMax =   5.18335374621870E-14  4.81369064703110E-01
 cg2d: Sum(rhs),rhsMax =  -7.46069872548105E-14  4.81389384535642E-01
 cg2d: Sum(rhs),rhsMax =   2.27845520228698E-13  4.81404813519935E-01
 cg2d: Sum(rhs),rhsMax =  -3.69149155687865E-15  4.81415633288048E-01
 cg2d: Sum(rhs),rhsMax =  -2.22183382803109E-14  4.81422197759058E-01
 cg2d: Sum(rhs),rhsMax =  -5.44009282066327E-15  4.81424862539540E-01
 cg2d: Sum(rhs),rhsMax =   1.14797060746241E-13  4.81424038577534E-01
 cg2d: Sum(rhs),rhsMax =   1.04846686888038E-13  4.81420164910940E-01
 cg2d: Sum(rhs),rhsMax =   8.03107580438223E-14  4.81413751039602E-01
 cg2d: Sum(rhs),rhsMax =  -1.25593979660721E-13  4.81394568100066E-01
 cg2d: Sum(rhs),rhsMax =  -7.93809462606987E-14  4.81373687785032E-01
 cg2d: Sum(rhs),rhsMax =  -7.48012762841199E-15  4.81351923998015E-01
 cg2d: Sum(rhs),rhsMax =  -8.46128722642447E-14  4.81329623748808E-01
 cg2d: Sum(rhs),rhsMax =   8.92758089676704E-14  4.81307436472560E-01
 cg2d: Sum(rhs),rhsMax =  -6.22557561058557E-14  4.81285537178257E-01
 cg2d: Sum(rhs),rhsMax =   3.00939828612456E-13  4.81264216464356E-01
 cg2d: Sum(rhs),rhsMax =   9.64645030521183E-14  4.81243729601950E-01
 cg2d: Sum(rhs),rhsMax =  -1.20931042957295E-13  4.81224310305843E-01
 cg2d: Sum(rhs),rhsMax =  -9.73110481083950E-14  4.81205841436579E-01
 cg2d: Sum(rhs),rhsMax =   1.36265998484930E-13  4.81188395705263E-01
 cg2d: Sum(rhs),rhsMax =  -6.95693502805739E-14  4.81172050588970E-01
 cg2d: Sum(rhs),rhsMax =  -1.33601463225830E-13  4.81156787584962E-01
 cg2d: Sum(rhs),rhsMax =   8.60006510450262E-14  4.81142560811195E-01
 cg2d: Sum(rhs),rhsMax =   1.29576904761564E-13  4.81129275434515E-01
 cg2d: Sum(rhs),rhsMax =  -5.72319969194268E-14  4.81116873117495E-01
 cg2d: Sum(rhs),rhsMax =   7.54257767354716E-14  4.81105197610243E-01
 cg2d: Sum(rhs),rhsMax =  -1.06706310454285E-13  4.81093872185261E-01
 cg2d: Sum(rhs),rhsMax =   4.63795668537159E-14  4.81082768054742E-01
 cg2d: Sum(rhs),rhsMax =  -2.19269047363468E-14  4.81071796193619E-01
 cg2d: Sum(rhs),rhsMax =   7.04991620636974E-14  4.81060972555190E-01
 cg2d: Sum(rhs),rhsMax =   7.02632396709646E-14  4.81050502113059E-01
 cg2d: Sum(rhs),rhsMax =   2.83245649157493E-14  4.81040375514901E-01
 cg2d: Sum(rhs),rhsMax =   3.14748227481232E-14  4.81030140742359E-01
 cg2d: Sum(rhs),rhsMax =  -6.66966482043563E-14  4.81019619895837E-01
 cg2d: Sum(rhs),rhsMax =   7.51204654036997E-14  4.81008804707559E-01
 cg2d: Sum(rhs),rhsMax =   4.62130334000221E-14  4.80997696513780E-01
 cg2d: Sum(rhs),rhsMax =   1.50698897805057E-13  4.80986320613901E-01
 cg2d: Sum(rhs),rhsMax =   2.96235258545607E-13  4.80974699840719E-01
 cg2d: Sum(rhs),rhsMax =  -6.29496454962464E-14  4.80963176504643E-01
 cg2d: Sum(rhs),rhsMax =   3.24740234702858E-14  4.80951789740211E-01
 cg2d: Sum(rhs),rhsMax =   3.72896158395974E-14  4.80940650012654E-01
 cg2d: Sum(rhs),rhsMax =   2.58265631103427E-14  4.80929958500793E-01
 cg2d: Sum(rhs),rhsMax =   5.46923617505968E-14  4.80920413947123E-01
 cg2d: Sum(rhs),rhsMax =  -5.82867087928207E-15  4.80910764295788E-01
 cg2d: Sum(rhs),rhsMax =   1.57165946923499E-13  4.80902642823593E-01
 cg2d: Sum(rhs),rhsMax =  -8.76659855819639E-14  4.80895826420431E-01
 cg2d: Sum(rhs),rhsMax =   1.65284452791070E-13  4.80890492915249E-01
 cg2d: Sum(rhs),rhsMax =  -1.23581700428588E-13  4.80886902586142E-01
 cg2d: Sum(rhs),rhsMax =  -7.33024752008760E-14  4.80885287308755E-01
 cg2d: Sum(rhs),rhsMax =  -9.02750096898330E-14  4.80885886393179E-01
 cg2d: Sum(rhs),rhsMax =   1.77538539425370E-13  4.80888831132712E-01
 cg2d: Sum(rhs),rhsMax =   1.41428535549437E-13  4.80894393002476E-01
 cg2d: Sum(rhs),rhsMax =   1.30936927966729E-13  4.80902379742343E-01
 cg2d: Sum(rhs),rhsMax =   4.41313652288500E-14  4.80912779794407E-01
 cg2d: Sum(rhs),rhsMax =  -1.09037778805998E-13  4.80925533031010E-01
 cg2d: Sum(rhs),rhsMax =  -6.50313136674185E-14  4.80940553477778E-01
 cg2d: Sum(rhs),rhsMax =   5.45674616603264E-14  4.80957593196670E-01
 cg2d: Sum(rhs),rhsMax =   6.50174358796107E-14  4.80976511366132E-01
 cg2d: Sum(rhs),rhsMax =  -1.94386173824057E-13  4.80997226504300E-01
 cg2d: Sum(rhs),rhsMax =  -3.49026363366534E-14  4.81019112855946E-01
 cg2d: Sum(rhs),rhsMax =   1.23914767335975E-13  4.81041589707562E-01
 cg2d: Sum(rhs),rhsMax =  -4.95020691104742E-14  4.81064388134492E-01
 cg2d: Sum(rhs),rhsMax =   7.28306304154103E-14  4.81087282987003E-01
 cg2d: Sum(rhs),rhsMax =   1.10203512981855E-13  4.81110069197307E-01
 cg2d: Sum(rhs),rhsMax =  -3.41809913706470E-14  4.81132794625891E-01
 cg2d: Sum(rhs),rhsMax =   1.09204312259692E-13  4.81155218475449E-01
 cg2d: Sum(rhs),rhsMax =   5.77315972805081E-15  4.81176776002272E-01
 cg2d: Sum(rhs),rhsMax =  -2.13856710118421E-14  4.81197165293826E-01
 cg2d: Sum(rhs),rhsMax =  -9.00390872971002E-14  4.81216171418067E-01
 cg2d: Sum(rhs),rhsMax =  -4.67959004879503E-14  4.81233652412068E-01
 cg2d: Sum(rhs),rhsMax =  -8.76104744307327E-14  4.81249491790649E-01
 cg2d: Sum(rhs),rhsMax =   2.52256548982643E-13  4.81263627229244E-01
 cg2d: Sum(rhs),rhsMax =  -9.60898027813073E-14  4.81275306655993E-01
 cg2d: Sum(rhs),rhsMax =   2.79595790964038E-13  4.81284364336528E-01
 cg2d: Sum(rhs),rhsMax =   6.83619827412940E-14  4.81290897179463E-01
 cg2d: Sum(rhs),rhsMax =   2.86298762475212E-13  4.81295080994055E-01
 cg2d: Sum(rhs),rhsMax =   1.96023752785379E-13  4.81297033345910E-01
 cg2d: Sum(rhs),rhsMax =  -1.03805852802452E-13  4.81297066422929E-01
 cg2d: Sum(rhs),rhsMax =  -5.40678612992451E-14  4.81295458297886E-01
 cg2d: Sum(rhs),rhsMax =   1.53752011122776E-13  4.81292560553379E-01
 cg2d: Sum(rhs),rhsMax =  -1.03847486165876E-13  4.81288867224862E-01
 cg2d: Sum(rhs),rhsMax =   1.65770175364344E-13  4.81284359380339E-01
 cg2d: Sum(rhs),rhsMax =  -5.17363929475323E-14  4.81279951433269E-01
 cg2d: Sum(rhs),rhsMax =  -4.30211422042248E-15  4.81275872157064E-01
 cg2d: Sum(rhs),rhsMax =   3.52079476684253E-14  4.81272578649051E-01
 cg2d: Sum(rhs),rhsMax =  -4.02455846426619E-15  4.81270415734863E-01
 cg2d: Sum(rhs),rhsMax =   1.00669472757886E-13  4.81269784279078E-01
 cg2d: Sum(rhs),rhsMax =  -3.45695694292658E-14  4.81271228583483E-01
 cg2d: Sum(rhs),rhsMax =   1.36279876272738E-14  4.81275283834578E-01
 cg2d: Sum(rhs),rhsMax =   7.75490782700672E-14  4.81281784801890E-01
 cg2d: Sum(rhs),rhsMax =  -2.03045913416133E-13  4.81291025503545E-01
 cg2d: Sum(rhs),rhsMax =  -5.03902475301743E-14  4.81303123271763E-01
 cg2d: Sum(rhs),rhsMax =  -2.18200457702267E-13  4.81318171799320E-01
 cg2d: Sum(rhs),rhsMax =  -1.08038578083836E-13  4.81336141197411E-01
 cg2d: Sum(rhs),rhsMax =  -1.75165437710234E-13  4.81356944953858E-01
 cg2d: Sum(rhs),rhsMax =   2.93515212135276E-14  4.81380406150815E-01
 cg2d: Sum(rhs),rhsMax =  -8.78047634600421E-14  4.81406236788814E-01
 cg2d: Sum(rhs),rhsMax =   5.80646641878957E-14  4.81435304579246E-01
 cg2d: Sum(rhs),rhsMax =  -8.98586760555986E-14  4.81465556068277E-01
 cg2d: Sum(rhs),rhsMax =  -2.47163400857175E-14  4.81496787990647E-01
 cg2d: Sum(rhs),rhsMax =  -1.77191594730175E-13  4.81528412452180E-01
 cg2d: Sum(rhs),rhsMax =  -2.11081152556858E-14  4.81559935372659E-01
 cg2d: Sum(rhs),rhsMax =   4.22994972382185E-14  4.81590101925749E-01
 cg2d: Sum(rhs),rhsMax =   5.61356516826095E-14  4.81617954649167E-01
 cg2d: Sum(rhs),rhsMax =  -1.23581700428588E-13  4.81642849725298E-01
 cg2d: Sum(rhs),rhsMax =  -1.10036979528161E-13  4.81664173943233E-01
 cg2d: Sum(rhs),rhsMax =   2.21350715534641E-14  4.81681283817643E-01
 cg2d: Sum(rhs),rhsMax =  -1.59594559789866E-15  4.81693437094341E-01
 cg2d: Sum(rhs),rhsMax =   7.71466224236406E-14  4.81700141541554E-01
 cg2d: Sum(rhs),rhsMax =   1.95288230031565E-13  4.81700835831454E-01
 cg2d: Sum(rhs),rhsMax =   4.94049245958195E-15  4.81694993125552E-01
 cg2d: Sum(rhs),rhsMax =  -1.66047731120500E-13  4.81682175783103E-01
 cg2d: Sum(rhs),rhsMax =   1.33282274106250E-13  4.81661951793181E-01
 cg2d: Sum(rhs),rhsMax =   2.67008637422350E-13  4.81634001712379E-01
 cg2d: Sum(rhs),rhsMax =   1.46244127918749E-13  4.81597307347974E-01
 cg2d: Sum(rhs),rhsMax =   1.22929444401620E-13  4.81551690272070E-01
 cg2d: Sum(rhs),rhsMax =  -2.00742200640036E-13  4.81497265930980E-01
 cg2d: Sum(rhs),rhsMax =   2.40779618465581E-14  4.81433802856843E-01
 cg2d: Sum(rhs),rhsMax =  -1.23692722731050E-13  4.81361059521530E-01
 cg2d: Sum(rhs),rhsMax =  -2.68396416203132E-14  4.81279369977138E-01
 cg2d: Sum(rhs),rhsMax =   4.05925293378573E-14  4.81189049782149E-01
 cg2d: Sum(rhs),rhsMax =  -3.51524365171940E-14  4.81090585215853E-01
 cg2d: Sum(rhs),rhsMax =   1.05845887610201E-13  4.80985124709958E-01
 cg2d: Sum(rhs),rhsMax =  -1.20223275779097E-13  4.80871882908854E-01
 cg2d: Sum(rhs),rhsMax =   1.33226762955019E-14  4.80752716696917E-01
 cg2d: Sum(rhs),rhsMax =   5.96744875736022E-16  4.80628096963383E-01
 cg2d: Sum(rhs),rhsMax =   1.77149961366752E-13  4.80499070976989E-01
 cg2d: Sum(rhs),rhsMax =   6.59194920871187E-14  4.80365991960478E-01
 cg2d: Sum(rhs),rhsMax =   6.40876240964872E-14  4.80230774272163E-01
 cg2d: Sum(rhs),rhsMax =  -6.49341691527638E-14  4.80094017619002E-01
 cg2d: Sum(rhs),rhsMax =   2.31537011785576E-13  4.79958405931044E-01
 cg2d: Sum(rhs),rhsMax =   1.37209688055862E-13  4.79824089803279E-01
 cg2d: Sum(rhs),rhsMax =   5.78426195829707E-14  4.79692483956330E-01
 cg2d: Sum(rhs),rhsMax =   1.87003190710300E-13  4.79564850319042E-01
 cg2d: Sum(rhs),rhsMax =   3.62210261783957E-15  4.79442217291459E-01
 cg2d: Sum(rhs),rhsMax =   1.32907573835439E-13  4.79325741917719E-01
 cg2d: Sum(rhs),rhsMax =  -1.55292445569444E-13  4.79216492505447E-01
 cg2d: Sum(rhs),rhsMax =   1.47937218031302E-14  4.79115451885336E-01
 cg2d: Sum(rhs),rhsMax =   1.23137611218738E-13  4.79023512300007E-01
 cg2d: Sum(rhs),rhsMax =  -5.68989300120393E-15  4.78941461043100E-01
 cg2d: Sum(rhs),rhsMax =   6.77097267143267E-14  4.78869901214646E-01
 cg2d: Sum(rhs),rhsMax =  -6.99856839148083E-14  4.78809210101938E-01
 cg2d: Sum(rhs),rhsMax =   1.36779476633819E-13  4.78759972974811E-01
 cg2d: Sum(rhs),rhsMax =  -5.31935606673528E-14  4.78722350901220E-01
 cg2d: Sum(rhs),rhsMax =  -1.45300438347817E-13  4.78695352339004E-01
 cg2d: Sum(rhs),rhsMax =   2.72976086179710E-14  4.78681300652258E-01
 cg2d: Sum(rhs),rhsMax =  -9.52016243616072E-15  4.78678961022711E-01
 cg2d: Sum(rhs),rhsMax =   1.05235264946657E-13  4.78685580317059E-01
 cg2d: Sum(rhs),rhsMax =  -2.95707902608910E-13  4.78704562917292E-01
 cg2d: Sum(rhs),rhsMax =   5.37625499674732E-14  4.78731916528897E-01
 cg2d: Sum(rhs),rhsMax =  -1.80411241501588E-14  4.78768771985274E-01
 cg2d: Sum(rhs),rhsMax =  -1.25871535416877E-13  4.78814137137690E-01
 cg2d: Sum(rhs),rhsMax =   7.48984207987746E-14  4.80052206336630E-01
 cg2d: Sum(rhs),rhsMax =   5.86475312758239E-14  4.81323563327142E-01
 cg2d: Sum(rhs),rhsMax =  -1.28508315100362E-14  4.82598606429908E-01
 cg2d: Sum(rhs),rhsMax =   1.28300148283245E-13  4.83875206691423E-01
 cg2d: Sum(rhs),rhsMax =   7.02771174587724E-14  4.85151551309960E-01
 cg2d: Sum(rhs),rhsMax =  -3.45307116234039E-13  4.86426267704488E-01
 cg2d: Sum(rhs),rhsMax =  -8.50708392619026E-14  4.87698439947840E-01
 cg2d: Sum(rhs),rhsMax =   1.23762111670089E-13  4.88968623434114E-01
 cg2d: Sum(rhs),rhsMax =  -9.90874049477952E-14  4.90238052004956E-01
 cg2d: Sum(rhs),rhsMax =  -2.01505478969466E-13  4.91507813871794E-01
 cg2d: Sum(rhs),rhsMax =   2.08374983934334E-13  4.92771355431709E-01
 cg2d: Sum(rhs),rhsMax =   4.37705427458468E-14  4.94024531609440E-01
 cg2d: Sum(rhs),rhsMax =  -1.13159481784919E-13  4.95265971740088E-01
 cg2d: Sum(rhs),rhsMax =   6.85840273462190E-14  4.96497291325995E-01
 cg2d: Sum(rhs),rhsMax =   6.85423939827956E-14  4.97714831902220E-01
 cg2d: Sum(rhs),rhsMax =  -2.18339235580345E-13  4.98918108831930E-01
 cg2d: Sum(rhs),rhsMax =  -3.11861647617206E-13  5.00108036300952E-01
 cg2d: Sum(rhs),rhsMax =   2.98649993624167E-14  5.01285405285888E-01
 cg2d: Sum(rhs),rhsMax =  -6.66966482043563E-14  5.02451685704567E-01
 cg2d: Sum(rhs),rhsMax =  -2.24265050974282E-14  5.03607704365228E-01
 cg2d: Sum(rhs),rhsMax =   6.46427356087997E-14  5.04755197594663E-01
 cg2d: Sum(rhs),rhsMax =   3.17523785042795E-14  5.05896188934733E-01
 cg2d: Sum(rhs),rhsMax =   2.20962137476022E-13  5.07032767135393E-01
 cg2d: Sum(rhs),rhsMax =  -1.46063716677247E-13  5.08166846557297E-01
 cg2d: Sum(rhs),rhsMax =   1.18891008149546E-13  5.09300378011743E-01
 cg2d: Sum(rhs),rhsMax =  -2.58543186859583E-14  5.10436062725791E-01
 cg2d: Sum(rhs),rhsMax =   7.03187508221959E-14  5.11575722414838E-01
 cg2d: Sum(rhs),rhsMax =   7.03603841856193E-14  5.12721353575707E-01
 cg2d: Sum(rhs),rhsMax =  -1.14866449685280E-13  5.13875776272171E-01
 cg2d: Sum(rhs),rhsMax =  -8.62782068011825E-14  5.15041356391416E-01
 cg2d: Sum(rhs),rhsMax =   4.49501547095110E-14  5.16219405687137E-01
 cg2d: Sum(rhs),rhsMax =   1.16989751219876E-14  5.17411001135739E-01
 cg2d: Sum(rhs),rhsMax =   6.86395384974503E-14  5.18614697190444E-01
 cg2d: Sum(rhs),rhsMax =   9.14962550169207E-14  5.19830134216205E-01
 cg2d: Sum(rhs),rhsMax =   1.34198208101566E-13  5.21057127716101E-01
 cg2d: Sum(rhs),rhsMax =   2.84633427938275E-14  5.22294518063902E-01
 cg2d: Sum(rhs),rhsMax =   1.19418364086243E-13  5.23549532886678E-01
 cg2d: Sum(rhs),rhsMax =  -1.73347447507410E-13  5.24812132837601E-01
 cg2d: Sum(rhs),rhsMax =   9.42163014272523E-14  5.26080436861333E-01
 cg2d: Sum(rhs),rhsMax =  -4.13141743038636E-14  5.27353024585853E-01
 cg2d: Sum(rhs),rhsMax =   6.05349104176867E-14  5.28629127274095E-01
 cg2d: Sum(rhs),rhsMax =  -6.64190924482000E-14  5.29906748215870E-01
 cg2d: Sum(rhs),rhsMax =   2.34257058195908E-14  5.31183999742448E-01
 cg2d: Sum(rhs),rhsMax =   1.69031455499180E-14  5.32458589674091E-01
 cg2d: Sum(rhs),rhsMax =   2.21142548717523E-13  5.33728268925080E-01
 cg2d: Sum(rhs),rhsMax =  -9.60898027813073E-14  5.34991133098415E-01
 cg2d: Sum(rhs),rhsMax =   8.70692407062279E-14  5.36245720059202E-01
 cg2d: Sum(rhs),rhsMax =  -1.11272102643056E-13  5.37490490292146E-01
 cg2d: Sum(rhs),rhsMax =  -3.74561492932912E-14  5.38723765294688E-01
 cg2d: Sum(rhs),rhsMax =  -6.39766017940246E-15  5.39944236240785E-01
 cg2d: Sum(rhs),rhsMax =   2.07361905424364E-13  5.41150426608879E-01
 cg2d: Sum(rhs),rhsMax =   2.84314238818695E-13  5.42341808014881E-01
 cg2d: Sum(rhs),rhsMax =  -2.40349407043539E-13  5.43518207038409E-01
 cg2d: Sum(rhs),rhsMax =  -6.70991040507829E-14  5.44679826617516E-01
 cg2d: Sum(rhs),rhsMax =  -2.93653990013354E-14  5.45799612485937E-01
 cg2d: Sum(rhs),rhsMax =   1.15199516592668E-13  5.46854846815426E-01
 cg2d: Sum(rhs),rhsMax =  -1.16642806524681E-13  5.47897690192614E-01
 cg2d: Sum(rhs),rhsMax =  -6.29218899206307E-14  5.48929934731495E-01
 cg2d: Sum(rhs),rhsMax =   2.09263162354034E-13  5.49952663372015E-01
 cg2d: Sum(rhs),rhsMax =  -1.17711396185882E-13  5.50967688929605E-01
 cg2d: Sum(rhs),rhsMax =  -4.26186863577982E-14  5.51976823491478E-01
 cg2d: Sum(rhs),rhsMax =   1.04499742192843E-13  5.52982356486134E-01
 cg2d: Sum(rhs),rhsMax =   1.98938088225020E-13  5.53986550376364E-01
 cg2d: Sum(rhs),rhsMax =   8.38634717226228E-14  5.54991535316799E-01
 cg2d: Sum(rhs),rhsMax =  -2.42680875395251E-13  5.55999016793498E-01
 cg2d: Sum(rhs),rhsMax =   6.53227472113826E-14  5.57010590740850E-01
 cg2d: Sum(rhs),rhsMax =  -3.75255382323303E-14  5.58028507737040E-01
 cg2d: Sum(rhs),rhsMax =   4.25631752065669E-14  5.59053958754244E-01
 cg2d: Sum(rhs),rhsMax =   4.25631752065669E-14  5.60084365924171E-01
 cg2d: Sum(rhs),rhsMax =  -1.71751501909512E-13  5.61120305245512E-01
 cg2d: Sum(rhs),rhsMax =   1.52877710490884E-13  5.62162311088137E-01
 cg2d: Sum(rhs),rhsMax =  -7.84927678409986E-14  5.63212127930274E-01
 cg2d: Sum(rhs),rhsMax =   1.18113852032309E-13  5.64271182091329E-01
 cg2d: Sum(rhs),rhsMax =   1.04194430861071E-13  5.65340633310922E-01
 cg2d: Sum(rhs),rhsMax =  -1.22984955552852E-13  5.66421377131108E-01
 cg2d: Sum(rhs),rhsMax =   1.54085078030164E-13  5.67513769282793E-01
 cg2d: Sum(rhs),rhsMax =  -1.04777297948999E-14  5.68617534343102E-01
 cg2d: Sum(rhs),rhsMax =  -1.25635613024144E-13  5.69732056553254E-01
 cg2d: Sum(rhs),rhsMax =   1.54626311754669E-13  5.70854560545438E-01
 cg2d: Sum(rhs),rhsMax =   3.05727665406152E-14  5.71981869048838E-01
 cg2d: Sum(rhs),rhsMax =  -5.89528426075958E-14  5.73112629254979E-01
 cg2d: Sum(rhs),rhsMax =  -4.66987559732956E-14  5.74244737601203E-01
 cg2d: Sum(rhs),rhsMax =   2.09832151654155E-14  5.75375971183445E-01
 cg2d: Sum(rhs),rhsMax =   1.38736244714721E-13  5.76503979106014E-01
 cg2d: Sum(rhs),rhsMax =   6.52533582723436E-14  5.77626379596054E-01
 cg2d: Sum(rhs),rhsMax =  -7.95891130778159E-14  5.78741361847587E-01
 cg2d: Sum(rhs),rhsMax =  -8.87068196675500E-14  5.79847366964741E-01
 cg2d: Sum(rhs),rhsMax =  -1.05956909912663E-13  5.80942977834394E-01
 cg2d: Sum(rhs),rhsMax =  -6.28386231937839E-14  5.82026508733115E-01
 cg2d: Sum(rhs),rhsMax =   4.30627755676483E-14  5.83095413856093E-01
 cg2d: Sum(rhs),rhsMax =   5.74540415243519E-15  5.84147949402181E-01
 cg2d: Sum(rhs),rhsMax =   6.75154376850173E-14  5.85183842568277E-01
 cg2d: Sum(rhs),rhsMax =  -4.42146319556969E-14  5.86203213014387E-01
 cg2d: Sum(rhs),rhsMax =   2.61457522299224E-14  5.87205980283667E-01
 cg2d: Sum(rhs),rhsMax =   5.46923617505968E-14  5.88192484356519E-01
 cg2d: Sum(rhs),rhsMax =   1.00502939304192E-13  5.89163158787012E-01
 cg2d: Sum(rhs),rhsMax =  -8.60422844084496E-15  5.90118817926915E-01
 cg2d: Sum(rhs),rhsMax =  -6.93334278878410E-14  5.91060441384494E-01
 cg2d: Sum(rhs),rhsMax =   4.76008121808036E-14  5.91989229287639E-01
 cg2d: Sum(rhs),rhsMax =  -1.45300438347817E-14  5.92907579229500E-01
 cg2d: Sum(rhs),rhsMax =   2.52575738102223E-15  5.93816919772929E-01
 cg2d: Sum(rhs),rhsMax =  -7.35522753814166E-15  5.94719105990644E-01
 cg2d: Sum(rhs),rhsMax =  -9.68530811107371E-14  5.95615883389960E-01
 cg2d: Sum(rhs),rhsMax =   3.28764793167124E-14  5.96508703941787E-01
 cg2d: Sum(rhs),rhsMax =  -6.04238881152241E-14  5.97398545958170E-01
 cg2d: Sum(rhs),rhsMax =  -2.51881848711832E-14  5.98286610995031E-01
 cg2d: Sum(rhs),rhsMax =  -2.12330153459561E-14  5.99173808535740E-01
 cg2d: Sum(rhs),rhsMax =   4.38954428361171E-14  6.00061155158944E-01
 cg2d: Sum(rhs),rhsMax =  -3.62349039662035E-14  6.00947695750657E-01
 cg2d: Sum(rhs),rhsMax =   8.12128142513302E-14  6.01833929706266E-01
 cg2d: Sum(rhs),rhsMax =   4.58383331292112E-14  6.02720962122482E-01
 cg2d: Sum(rhs),rhsMax =   1.09592890318311E-13  6.03605998935022E-01
 cg2d: Sum(rhs),rhsMax =  -6.60027588139656E-14  6.04488712524205E-01
 cg2d: Sum(rhs),rhsMax =   9.76024816523591E-14  6.05368501354453E-01
 cg2d: Sum(rhs),rhsMax =  -5.89667203954036E-14  6.06245233405320E-01
 cg2d: Sum(rhs),rhsMax =   6.44484465794903E-14  6.07118681073479E-01
 cg2d: Sum(rhs),rhsMax =  -1.39471767468535E-14  6.07985586568416E-01
 cg2d: Sum(rhs),rhsMax =  -8.18789480661053E-14  6.08843682470652E-01
 cg2d: Sum(rhs),rhsMax =  -5.12090370108353E-15  6.09690678248160E-01
 cg2d: Sum(rhs),rhsMax =   1.18724474695853E-13  6.10524630090345E-01
 cg2d: Sum(rhs),rhsMax =  -3.64569485711286E-14  6.11343942329955E-01
 cg2d: Sum(rhs),rhsMax =  -1.09218190047500E-14  6.12147190227075E-01
 cg2d: Sum(rhs),rhsMax =  -1.02140518265514E-14  6.12933057385721E-01
 cg2d: Sum(rhs),rhsMax =   4.11753964257855E-14  6.13700127455800E-01
 cg2d: Sum(rhs),rhsMax =   4.74204009393020E-14  6.14447084946721E-01
 cg2d: Sum(rhs),rhsMax =   2.16771045558062E-14  6.15173938868092E-01
 cg2d: Sum(rhs),rhsMax =  -1.86656246015104E-14  6.15880592809596E-01
 cg2d: Sum(rhs),rhsMax =  -1.07761022327679E-13  6.16566966981083E-01
 cg2d: Sum(rhs),rhsMax =   1.46035961101632E-13  6.17233596780979E-01
 cg2d: Sum(rhs),rhsMax =   1.48062118121572E-13  6.17881124672031E-01
 cg2d: Sum(rhs),rhsMax =  -5.63438184997267E-15  6.18463595279999E-01
 cg2d: Sum(rhs),rhsMax =   4.95575802617054E-14  6.19028898843519E-01
 cg2d: Sum(rhs),rhsMax =  -1.53904666788662E-13  6.19579541261659E-01
 cg2d: Sum(rhs),rhsMax =   5.79536418854332E-14  6.20116608060891E-01
 cg2d: Sum(rhs),rhsMax =   2.82412981889024E-14  6.20641626922113E-01
 cg2d: Sum(rhs),rhsMax =  -4.04121180963557E-14  6.21156005801333E-01
 cg2d: Sum(rhs),rhsMax =  -1.15046860926782E-14  6.21661139105798E-01
 cg2d: Sum(rhs),rhsMax =  -6.44345687916825E-14  6.22158745048580E-01
 cg2d: Sum(rhs),rhsMax =   3.75116604445225E-14  6.22650430928792E-01
 cg2d: Sum(rhs),rhsMax =   5.77454750683160E-14  6.23137882303737E-01
 cg2d: Sum(rhs),rhsMax =   4.17860190893293E-14  6.23625347381413E-01
 cg2d: Sum(rhs),rhsMax =   5.97716320882569E-14  6.24106996357913E-01
 cg2d: Sum(rhs),rhsMax =   2.46191955710628E-14  6.24583254049491E-01
 cg2d: Sum(rhs),rhsMax =  -2.57849297469193E-14  6.25054618003333E-01
 cg2d: Sum(rhs),rhsMax =   8.77076189453874E-15  6.25521252005076E-01
 cg2d: Sum(rhs),rhsMax =  -1.92346139016308E-13  6.25983075094832E-01
 cg2d: Sum(rhs),rhsMax =   7.79237785408782E-14  6.26438433680254E-01
 cg2d: Sum(rhs),rhsMax =   4.16749967868668E-14  6.26885054544883E-01
 cg2d: Sum(rhs),rhsMax =  -4.89053242347381E-14  6.27323182531730E-01
 cg2d: Sum(rhs),rhsMax =  -1.42108547152020E-13  6.27752497091213E-01
 cg2d: Sum(rhs),rhsMax =   1.63341562497976E-14  6.28172511948744E-01
 cg2d: Sum(rhs),rhsMax =   3.55548923636206E-14  6.28582095148245E-01
 cg2d: Sum(rhs),rhsMax =   6.13398221105399E-15  6.28980205496422E-01
 cg2d: Sum(rhs),rhsMax =  -2.01783034725622E-14  6.29365812288689E-01
 cg2d: Sum(rhs),rhsMax =   1.02196029416746E-13  6.29737783623323E-01
 cg2d: Sum(rhs),rhsMax =  -2.07056594092592E-14  6.30094955789050E-01
 cg2d: Sum(rhs),rhsMax =  -2.65620858641569E-14  6.30432696801046E-01
 cg2d: Sum(rhs),rhsMax =  -7.68274333040608E-14  6.30749329303946E-01
 cg2d: Sum(rhs),rhsMax =   1.05901398761432E-13  6.31043340930653E-01
 cg2d: Sum(rhs),rhsMax =   8.19344592173366E-14  6.31313389084495E-01
 cg2d: Sum(rhs),rhsMax =  -6.04655214786476E-14  6.31558828630893E-01
 cg2d: Sum(rhs),rhsMax =   3.22381010775530E-14  6.31778917810906E-01
 cg2d: Sum(rhs),rhsMax =  -3.54716256367738E-14  6.31973217612575E-01
 cg2d: Sum(rhs),rhsMax =   2.23709939461969E-14  6.32141797794796E-01
 cg2d: Sum(rhs),rhsMax =  -6.66411370531250E-14  6.32285264570023E-01
 cg2d: Sum(rhs),rhsMax =  -7.25253190836384E-14  6.32404576417466E-01
 cg2d: Sum(rhs),rhsMax =  -1.90819582357449E-14  6.32501110592131E-01
 cg2d: Sum(rhs),rhsMax =  -2.58681964737661E-14  6.32576274437800E-01
 cg2d: Sum(rhs),rhsMax =  -1.14616649504740E-13  6.32631420615674E-01
 cg2d: Sum(rhs),rhsMax =   1.92068583260152E-14  6.32672521292802E-01
 cg2d: Sum(rhs),rhsMax =   4.96547247763601E-14  6.32697428517314E-01
 cg2d: Sum(rhs),rhsMax =  -4.92939022933570E-14  6.32708767672571E-01
 cg2d: Sum(rhs),rhsMax =  -1.99687488766642E-13  6.32709103335550E-01
 cg2d: Sum(rhs),rhsMax =  -2.90462098817557E-14  6.32701102219726E-01
 cg2d: Sum(rhs),rhsMax =  -4.83502127224256E-14  6.32687261748262E-01
 cg2d: Sum(rhs),rhsMax =   1.36210487333699E-13  6.32670121560328E-01
 cg2d: Sum(rhs),rhsMax =  -4.14945855453652E-14  6.32652132670616E-01
 cg2d: Sum(rhs),rhsMax =   8.16707812489881E-14  6.32635502186200E-01
 cg2d: Sum(rhs),rhsMax =   7.20812298737883E-14  6.32622045354069E-01
 cg2d: Sum(rhs),rhsMax =  -9.15933995315754E-16  6.32613093016129E-01
 cg2d: Sum(rhs),rhsMax =   7.93115573216596E-14  6.32611616205602E-01
 cg2d: Sum(rhs),rhsMax =   1.66533453693773E-16  6.32620900077984E-01
 cg2d: Sum(rhs),rhsMax =  -2.14134265874577E-14  6.32634569045802E-01
 cg2d: Sum(rhs),rhsMax =  -1.47201695277488E-13  6.32654704565888E-01
 cg2d: Sum(rhs),rhsMax =   3.80112608056038E-14  6.32680598792161E-01
 cg2d: Sum(rhs),rhsMax =   1.90153448542674E-13  6.32713162983309E-01
 cg2d: Sum(rhs),rhsMax =  -8.78047634600421E-14  6.32753300082957E-01
 cg2d: Sum(rhs),rhsMax =   1.45439216225896E-14  6.32802166660428E-01
 cg2d: Sum(rhs),rhsMax =  -5.38458166943201E-15  6.32860760787503E-01
 cg2d: Sum(rhs),rhsMax =   7.00689506416552E-14  6.32929402449972E-01
 cg2d: Sum(rhs),rhsMax =   1.22221677223422E-13  6.33008105023938E-01
 cg2d: Sum(rhs),rhsMax =  -1.57512891618694E-13  6.33096676743945E-01
 cg2d: Sum(rhs),rhsMax =   1.59386392972749E-13  6.33139003501687E-01
 cg2d: Sum(rhs),rhsMax =  -2.04003480774873E-15  6.33184591188360E-01
 cg2d: Sum(rhs),rhsMax =   9.33975119465913E-14  6.33232411658058E-01
 cg2d: Sum(rhs),rhsMax =   8.22536483369163E-14  6.33282632119473E-01
 cg2d: Sum(rhs),rhsMax =   3.84137166520304E-14  6.33327186568367E-01
 cg2d: Sum(rhs),rhsMax =  -1.56749613289264E-13  6.33291396750788E-01
 cg2d: Sum(rhs),rhsMax =   1.00988661877466E-13  6.32979754504827E-01
 cg2d: Sum(rhs),rhsMax =  -9.08578767777612E-14  6.32649410160263E-01
 cg2d: Sum(rhs),rhsMax =   8.46267500520526E-14  6.32304352935629E-01
 cg2d: Sum(rhs),rhsMax =  -1.44925738077006E-13  6.31941519516334E-01
 cg2d: Sum(rhs),rhsMax =  -6.10622663543836E-16  6.31560644599739E-01
 cg2d: Sum(rhs),rhsMax =  -7.19979631469414E-14  6.31156554363672E-01
 cg2d: Sum(rhs),rhsMax =  -7.17342851785929E-14  6.30726489636371E-01
 cg2d: Sum(rhs),rhsMax =   1.03472785895065E-13  6.30267973318331E-01
 cg2d: Sum(rhs),rhsMax =  -9.87127046769842E-14  6.29779714507116E-01
 cg2d: Sum(rhs),rhsMax =   7.28306304154103E-14  6.29261305539259E-01
 cg2d: Sum(rhs),rhsMax =   3.58740814832004E-14  6.28713361728266E-01
 cg2d: Sum(rhs),rhsMax =   7.25391968714462E-14  6.28136513679690E-01
 cg2d: Sum(rhs),rhsMax =   6.53227472113826E-14  6.27535782518483E-01
 cg2d: Sum(rhs),rhsMax =  -8.11295475244833E-14  6.26911841182790E-01
 cg2d: Sum(rhs),rhsMax =  -2.95596880306448E-15  6.26268630569605E-01
 cg2d: Sum(rhs),rhsMax =   2.18713935851156E-14  6.25609388212807E-01
 cg2d: Sum(rhs),rhsMax =  -1.76789138883748E-13  6.24937482589280E-01
 cg2d: Sum(rhs),rhsMax =   1.14894205260896E-13  6.24256619387668E-01
 cg2d: Sum(rhs),rhsMax =   2.23571161583891E-14  6.23569975089153E-01
 cg2d: Sum(rhs),rhsMax =  -8.05883137999786E-14  6.22880369550931E-01
 cg2d: Sum(rhs),rhsMax =   3.17801340798951E-14  6.22189483418709E-01
 cg2d: Sum(rhs),rhsMax =   1.25732757538799E-13  6.21495657344817E-01
 cg2d: Sum(rhs),rhsMax =   3.60822483003176E-16  6.20800392313501E-01
 cg2d: Sum(rhs),rhsMax =  -2.05668815311810E-14  6.20105757508886E-01
 cg2d: Sum(rhs),rhsMax =   5.20972154305355E-14  6.19413566897141E-01
 cg2d: Sum(rhs),rhsMax =   3.48054918219987E-14  6.18725354649541E-01
 cg2d: Sum(rhs),rhsMax =  -4.50472992241657E-14  6.18039545561753E-01
 cg2d: Sum(rhs),rhsMax =  -7.16093850883226E-15  6.17358314371590E-01
 cg2d: Sum(rhs),rhsMax =  -6.96109836439973E-14  6.16683748015092E-01
 cg2d: Sum(rhs),rhsMax =   3.31540350728687E-14  6.16017455596699E-01
 cg2d: Sum(rhs),rhsMax =  -6.31023011621323E-14  6.15360690856488E-01
 cg2d: Sum(rhs),rhsMax =   5.68295410730002E-14  6.14714781893519E-01
 cg2d: Sum(rhs),rhsMax =   2.23016050071578E-14  6.14080758872509E-01
 cg2d: Sum(rhs),rhsMax =   1.05818132034585E-13  6.13459294748507E-01
 cg2d: Sum(rhs),rhsMax =  -1.56957780106382E-14  6.12850800706264E-01
 cg2d: Sum(rhs),rhsMax =  -3.37785355242204E-14  6.12255735384357E-01
 cg2d: Sum(rhs),rhsMax =  -1.28480559524746E-13  6.11670730712524E-01
 cg2d: Sum(rhs),rhsMax =   5.74262859487362E-14  6.11090675143156E-01
 cg2d: Sum(rhs),rhsMax =  -3.33066907387547E-16  6.10513076532567E-01
 cg2d: Sum(rhs),rhsMax =   1.35211286611536E-13  6.09937576911892E-01
 cg2d: Sum(rhs),rhsMax =   4.02039512792385E-14  6.09363203938336E-01
 cg2d: Sum(rhs),rhsMax =  -4.52277104656673E-14  6.08783513371734E-01
 cg2d: Sum(rhs),rhsMax =  -6.21586115912010E-14  6.08204324857327E-01
 cg2d: Sum(rhs),rhsMax =  -6.01324545712600E-14  6.07622514775134E-01
 cg2d: Sum(rhs),rhsMax =   8.07132138902489E-14  6.07039124635135E-01
 cg2d: Sum(rhs),rhsMax =  -1.32810429320784E-14  6.06452982521995E-01
 cg2d: Sum(rhs),rhsMax =  -2.47857290247566E-14  6.05863215425615E-01
 cg2d: Sum(rhs),rhsMax =   1.68060010352633E-14  6.05269085177926E-01
 cg2d: Sum(rhs),rhsMax =   1.22915566613813E-13  6.04669913974032E-01
 cg2d: Sum(rhs),rhsMax =  -9.61730695081542E-14  6.04064820820648E-01
 cg2d: Sum(rhs),rhsMax =   3.73173714152131E-14  6.03453246339152E-01
 cg2d: Sum(rhs),rhsMax =   9.62840918106167E-14  6.02834703278021E-01
 cg2d: Sum(rhs),rhsMax =  -1.20320420293751E-14  6.02208747394601E-01
 cg2d: Sum(rhs),rhsMax =   1.46826995006677E-14  6.01574968016939E-01
 cg2d: Sum(rhs),rhsMax =   6.65717481140859E-14  6.00932944989913E-01
 cg2d: Sum(rhs),rhsMax =  -1.39457889680727E-13  6.00282377553536E-01
 cg2d: Sum(rhs),rhsMax =   1.46438416948058E-13  5.99622649419602E-01
 cg2d: Sum(rhs),rhsMax =   3.67067487516692E-14  5.98958849574397E-01
 cg2d: Sum(rhs),rhsMax =  -1.19612653115553E-13  5.98284479140807E-01
 cg2d: Sum(rhs),rhsMax =  -3.76088049591772E-15  5.97594000546534E-01
 cg2d: Sum(rhs),rhsMax =  -4.73371342124551E-14  5.96888072147458E-01
 cg2d: Sum(rhs),rhsMax =   6.18671780472368E-14  5.96166440897812E-01
 cg2d: Sum(rhs),rhsMax =  -1.08663078535187E-14  5.95428973491383E-01
 cg2d: Sum(rhs),rhsMax =  -1.24900090270330E-15  5.94675714651015E-01
 cg2d: Sum(rhs),rhsMax =  -7.91311460801580E-14  5.93906831810559E-01
 cg2d: Sum(rhs),rhsMax =   2.20989893051637E-13  5.93122618976209E-01
 cg2d: Sum(rhs),rhsMax =   5.13616926767213E-14  5.92323511426855E-01
 cg2d: Sum(rhs),rhsMax =  -9.15933995315754E-16  5.91509804322864E-01
 cg2d: Sum(rhs),rhsMax =   2.17187379192296E-14  5.90681949943411E-01
 cg2d: Sum(rhs),rhsMax =  -1.23234755733392E-14  5.89840527344842E-01
 cg2d: Sum(rhs),rhsMax =  -1.50365830897670E-13  5.88986144585628E-01
 cg2d: Sum(rhs),rhsMax =  -2.74502642838570E-14  5.88119812763091E-01
 cg2d: Sum(rhs),rhsMax =   1.20944920745103E-13  5.87242344178089E-01
 cg2d: Sum(rhs),rhsMax =  -1.57651669496772E-14  5.86354658231517E-01
 cg2d: Sum(rhs),rhsMax =   2.61596300177303E-14  5.85457731043981E-01
 cg2d: Sum(rhs),rhsMax =   2.60763632908834E-14  5.84552605380807E-01
 cg2d: Sum(rhs),rhsMax =   8.16985368246037E-14  5.83640380051394E-01
 cg2d: Sum(rhs),rhsMax =   5.92720317271755E-14  5.82725875374476E-01
 cg2d: Sum(rhs),rhsMax =   6.35602681597902E-14  5.81803939973094E-01
 cg2d: Sum(rhs),rhsMax =   1.38777878078145E-15  5.80873948349556E-01
 cg2d: Sum(rhs),rhsMax =  -1.90125692967058E-15  5.79937193483491E-01
 cg2d: Sum(rhs),rhsMax =  -1.02501340748518E-13  5.78994936040719E-01
 cg2d: Sum(rhs),rhsMax =   2.11136663708089E-13  5.78048882458142E-01
 cg2d: Sum(rhs),rhsMax =   5.00433028349789E-14  5.77101088893421E-01
 cg2d: Sum(rhs),rhsMax =   2.02865502174632E-13  5.76153579952012E-01
 cg2d: Sum(rhs),rhsMax =  -5.27772270331184E-14  5.75208726430245E-01
 cg2d: Sum(rhs),rhsMax =  -9.71861480181246E-14  5.74269038806801E-01
 cg2d: Sum(rhs),rhsMax =  -9.76718705913981E-14  5.73336758570111E-01
 cg2d: Sum(rhs),rhsMax =   3.99125177352744E-14  5.72414275975141E-01
 cg2d: Sum(rhs),rhsMax =  -1.38777878078145E-16  5.71503839924089E-01
 cg2d: Sum(rhs),rhsMax =   1.49102952207159E-13  5.70607714588343E-01
 cg2d: Sum(rhs),rhsMax =   1.65284452791070E-14  5.69726887735620E-01
 cg2d: Sum(rhs),rhsMax =   1.90819582357449E-14  5.68862790279956E-01
 cg2d: Sum(rhs),rhsMax =  -4.02872180060854E-14  5.68016786971041E-01
 cg2d: Sum(rhs),rhsMax =  -1.04374842102573E-13  5.67190278477392E-01
 cg2d: Sum(rhs),rhsMax =   2.99898994526870E-14  5.66383022447125E-01
 cg2d: Sum(rhs),rhsMax =   4.16888745746746E-14  5.65589223014011E-01
 cg2d: Sum(rhs),rhsMax =   4.51999548900517E-14  5.64810045892274E-01
 cg2d: Sum(rhs),rhsMax =   1.54876111935209E-14  5.64046266377423E-01
 cg2d: Sum(rhs),rhsMax =  -1.35585986882347E-13  5.63298536440197E-01
 cg2d: Sum(rhs),rhsMax =  -9.12464548363801E-14  5.62567302831271E-01
 cg2d: Sum(rhs),rhsMax =  -4.97935026544383E-14  5.61852822660647E-01
 cg2d: Sum(rhs),rhsMax =   1.98244198834630E-13  5.61155092075776E-01
 cg2d: Sum(rhs),rhsMax =   2.78527201302836E-14  5.60473700512573E-01
 cg2d: Sum(rhs),rhsMax =   5.95218319077162E-14  5.59807632818770E-01
 cg2d: Sum(rhs),rhsMax =   2.22988294495963E-13  5.59155813122035E-01
 cg2d: Sum(rhs),rhsMax =  -9.86988268891764E-14  5.58517010063581E-01
 cg2d: Sum(rhs),rhsMax =   1.43537959296225E-13  5.57889764667556E-01
 cg2d: Sum(rhs),rhsMax =   7.87564458093470E-14  5.57272446298868E-01
 cg2d: Sum(rhs),rhsMax =   1.87197479739609E-13  5.56659264328601E-01
 cg2d: Sum(rhs),rhsMax =   2.99441027529213E-13  5.56047119862415E-01
 cg2d: Sum(rhs),rhsMax =   9.96425164601078E-14  5.55433501620632E-01
 cg2d: Sum(rhs),rhsMax =  -7.01522173685021E-14  5.54815878180501E-01
 cg2d: Sum(rhs),rhsMax =  -6.89726054048379E-15  5.54191659112166E-01
 cg2d: Sum(rhs),rhsMax =  -1.77899361908374E-13  5.53558415362311E-01
 cg2d: Sum(rhs),rhsMax =  -2.06501482580279E-13  5.52909255528680E-01
 cg2d: Sum(rhs),rhsMax =  -9.66865476570433E-14  5.52244069862772E-01
 cg2d: Sum(rhs),rhsMax =   5.06539254985228E-15  5.51560721281801E-01
 cg2d: Sum(rhs),rhsMax =   4.00651734011603E-14  5.50857790347337E-01
 cg2d: Sum(rhs),rhsMax =  -1.52933221642115E-14  5.50135138748596E-01
 cg2d: Sum(rhs),rhsMax =  -1.67837965747708E-13  5.49391223625180E-01
 cg2d: Sum(rhs),rhsMax =  -1.21860854740419E-13  5.48625988353470E-01
 cg2d: Sum(rhs),rhsMax =   9.15656439559598E-14  5.47839595796340E-01
 cg2d: Sum(rhs),rhsMax =   4.62546667634456E-14  5.47032710152198E-01
 cg2d: Sum(rhs),rhsMax =  -1.08371644991223E-13  5.46205998216163E-01
 cg2d: Sum(rhs),rhsMax =   7.58837437331294E-14  5.45360799735733E-01
 cg2d: Sum(rhs),rhsMax =  -2.52520226950992E-13  5.44498739389939E-01
 cg2d: Sum(rhs),rhsMax =   1.16198717314830E-13  5.43621766224578E-01
 cg2d: Sum(rhs),rhsMax =  -1.08274500476568E-13  5.42732004326874E-01
 cg2d: Sum(rhs),rhsMax =   1.88876692064355E-13  5.41831771270857E-01
 cg2d: Sum(rhs),rhsMax =   1.61412549992690E-13  5.40923367217304E-01
 cg2d: Sum(rhs),rhsMax =   6.23112672570869E-14  5.40009015664961E-01
 cg2d: Sum(rhs),rhsMax =  -9.27730114952396E-14  5.39087172967667E-01
 cg2d: Sum(rhs),rhsMax =  -9.88653603428702E-14  5.38159891637214E-01
 cg2d: Sum(rhs),rhsMax =   4.96547247763601E-14  5.37229550828435E-01
 cg2d: Sum(rhs),rhsMax =   1.29452004671293E-13  5.36295844541379E-01
 cg2d: Sum(rhs),rhsMax =  -3.53883589099269E-14  5.35358292061686E-01
 cg2d: Sum(rhs),rhsMax =   4.88081797200834E-14  5.34419868346747E-01
 cg2d: Sum(rhs),rhsMax =  -3.58879592710082E-14  5.33483053869242E-01
 cg2d: Sum(rhs),rhsMax =   2.70783395706076E-13  5.32550450352044E-01
 cg2d: Sum(rhs),rhsMax =   3.99957844621213E-14  5.31624565074909E-01
 cg2d: Sum(rhs),rhsMax =   5.57609514117985E-14  5.30707411491353E-01
 cg2d: Sum(rhs),rhsMax =  -1.45841672072322E-13  5.29800324722717E-01
 cg2d: Sum(rhs),rhsMax =  -5.90499871222505E-14  5.28905069433189E-01
 cg2d: Sum(rhs),rhsMax =  -5.49699175067531E-14  5.28011965682125E-01
 cg2d: Sum(rhs),rhsMax =   6.26998453157057E-14  5.27051874251210E-01
 cg2d: Sum(rhs),rhsMax =   1.00960906301850E-13  5.26105013294434E-01
 cg2d: Sum(rhs),rhsMax =   1.20625731625523E-13  5.25173912836962E-01
 cg2d: Sum(rhs),rhsMax =   9.06219543850284E-15  5.24258359062016E-01
 cg2d: Sum(rhs),rhsMax =   9.30922006148194E-14  5.23358556162601E-01
 cg2d: Sum(rhs),rhsMax =   8.65418847695310E-14  5.22474507024377E-01
 cg2d: Sum(rhs),rhsMax =  -3.49720252756924E-15  5.21605517642316E-01
 cg2d: Sum(rhs),rhsMax =   6.14508444130024E-14  5.20746398091844E-01
 cg2d: Sum(rhs),rhsMax =   1.62869717712510E-13  5.19895125653771E-01
 cg2d: Sum(rhs),rhsMax =   1.32338584535319E-13  5.19050525466247E-01
 cg2d: Sum(rhs),rhsMax =   2.98233659989933E-14  5.18210815665692E-01
 cg2d: Sum(rhs),rhsMax =   8.28226376370367E-14  5.17371458075219E-01
 cg2d: Sum(rhs),rhsMax =   4.29656310529936E-14  5.16531761940966E-01
 cg2d: Sum(rhs),rhsMax =  -1.64299129856715E-13  5.15691157902273E-01
 cg2d: Sum(rhs),rhsMax =  -1.67088565206086E-14  5.14848914632576E-01
 cg2d: Sum(rhs),rhsMax =   1.76109127281165E-13  5.14004436880800E-01
 cg2d: Sum(rhs),rhsMax =   6.23251450448947E-14  5.13157605461464E-01
 cg2d: Sum(rhs),rhsMax =  -3.94545507376165E-14  5.12308163912461E-01
 cg2d: Sum(rhs),rhsMax =  -1.04527497768458E-13  5.11454677865993E-01
 cg2d: Sum(rhs),rhsMax =   5.46646061749811E-14  5.10709019668946E-01
 cg2d: Sum(rhs),rhsMax =   1.09634523681734E-15  5.10115949670481E-01
 cg2d: Sum(rhs),rhsMax =  -6.35602681597902E-14  5.09520552528831E-01
 cg2d: Sum(rhs),rhsMax =  -2.13037920637760E-13  5.08920250637922E-01
 cg2d: Sum(rhs),rhsMax =  -1.13534182055730E-13  5.08316440143735E-01
 cg2d: Sum(rhs),rhsMax =  -1.28119737041743E-13  5.07708243146891E-01
 cg2d: Sum(rhs),rhsMax =  -2.62359578506732E-13  5.07093534129662E-01
 cg2d: Sum(rhs),rhsMax =   5.14727149791838E-14  5.06472545012410E-01
 cg2d: Sum(rhs),rhsMax =  -1.70571889945847E-13  5.05845752720483E-01
 cg2d: Sum(rhs),rhsMax =   4.08423295183979E-14  5.05213672572887E-01
 cg2d: Sum(rhs),rhsMax =  -9.75469705011278E-14  5.04575849860398E-01
 cg2d: Sum(rhs),rhsMax =   2.73642219994485E-13  5.03934181796662E-01
 cg2d: Sum(rhs),rhsMax =  -9.81714709524795E-14  5.03286163758122E-01
 cg2d: Sum(rhs),rhsMax =  -1.24095178577477E-13  5.02633371946909E-01
 cg2d: Sum(rhs),rhsMax =  -1.06165076729781E-13  5.01976579068606E-01
 cg2d: Sum(rhs),rhsMax =   8.62782068011825E-14  5.01317426407999E-01
 cg2d: Sum(rhs),rhsMax =  -1.50990331349021E-14  5.00657447791796E-01
 cg2d: Sum(rhs),rhsMax =  -3.36120020705266E-14  4.99998386686538E-01
 cg2d: Sum(rhs),rhsMax =   6.39210906427934E-14  4.99341243793396E-01
 cg2d: Sum(rhs),rhsMax =   1.82936998882610E-13  4.98686915389440E-01
 cg2d: Sum(rhs),rhsMax =   1.64257496493292E-13  4.98026468868169E-01
 cg2d: Sum(rhs),rhsMax =  -1.77899361908374E-13  4.97371592490727E-01
 cg2d: Sum(rhs),rhsMax =   1.23553944852972E-13  4.96723652049659E-01
 cg2d: Sum(rhs),rhsMax =  -7.94503351997378E-14  4.96083350380751E-01
 cg2d: Sum(rhs),rhsMax =  -1.69267377891913E-13  4.95451301550242E-01
 cg2d: Sum(rhs),rhsMax =  -1.75734427010354E-13  4.94825860464842E-01
 cg2d: Sum(rhs),rhsMax =   2.63872257377784E-13  4.94204881338819E-01
 cg2d: Sum(rhs),rhsMax =  -6.01740879346835E-14  4.93586320517843E-01
 cg2d: Sum(rhs),rhsMax =   1.69433911345607E-13  4.92969869918281E-01
 cg2d: Sum(rhs),rhsMax =  -7.68551888796765E-14  4.92355673194121E-01
 cg2d: Sum(rhs),rhsMax =  -8.44324610227432E-14  4.91743451923508E-01
 cg2d: Sum(rhs),rhsMax =  -1.33670852164869E-13  4.91132992361498E-01
 cg2d: Sum(rhs),rhsMax =   9.63812363252714E-14  4.90524386209482E-01
 cg2d: Sum(rhs),rhsMax =   2.28705943072782E-14  4.89914990304636E-01
 cg2d: Sum(rhs),rhsMax =   1.26620935958499E-13  4.89304972059199E-01
 cg2d: Sum(rhs),rhsMax =  -1.14769305170626E-13  4.88694878476630E-01
 cg2d: Sum(rhs),rhsMax =   6.02295990859147E-14  4.88085282773812E-01
 cg2d: Sum(rhs),rhsMax =  -1.27814425709971E-13  4.87476794512443E-01
 cg2d: Sum(rhs),rhsMax =   4.88636908713147E-14  4.86870250547294E-01
 cg2d: Sum(rhs),rhsMax =   1.55389590084098E-13  4.86266617301787E-01
 cg2d: Sum(rhs),rhsMax =   5.30547827892747E-14  4.85666645682185E-01
 cg2d: Sum(rhs),rhsMax =  -1.78038139786452E-13  4.85071280024472E-01
 cg2d: Sum(rhs),rhsMax =  -6.20753448643541E-14  4.84481554401822E-01
 cg2d: Sum(rhs),rhsMax =   3.84275944398382E-13  4.83896255422642E-01
 cg2d: Sum(rhs),rhsMax =  -1.32643895867091E-13  4.83314968329334E-01
 cg2d: Sum(rhs),rhsMax =   2.21919704834761E-13  4.83779734471797E-01
 cg2d: Sum(rhs),rhsMax =  -1.26773591624385E-13  4.84436614808427E-01
 cg2d: Sum(rhs),rhsMax =  -3.06879521794201E-13  4.85096202210644E-01
 cg2d: Sum(rhs),rhsMax =   7.86870568703080E-15  4.85761732282846E-01
 cg2d: Sum(rhs),rhsMax =  -1.79203873962308E-13  4.86433237351323E-01
 cg2d: Sum(rhs),rhsMax =  -6.94305724024957E-14  4.87111300550782E-01
 cg2d: Sum(rhs),rhsMax =   1.12965192755610E-14  4.87796357759868E-01
 cg2d: Sum(rhs),rhsMax =   1.68087765928249E-13  4.88488669168429E-01
 cg2d: Sum(rhs),rhsMax =   3.72618602639818E-14  4.89188439014072E-01
 cg2d: Sum(rhs),rhsMax =   2.74849587533765E-13  4.89895564846516E-01
 cg2d: Sum(rhs),rhsMax =   2.48412401759879E-14  4.90609657150753E-01
 cg2d: Sum(rhs),rhsMax =  -2.93653990013354E-14  4.91329035207702E-01
 cg2d: Sum(rhs),rhsMax =  -1.06997743998249E-13  4.91931783740836E-01
 cg2d: Sum(rhs),rhsMax =  -1.30159771849492E-13  4.92536177290405E-01
 cg2d: Sum(rhs),rhsMax =   1.43343670266916E-13  4.93145477612531E-01
 cg2d: Sum(rhs),rhsMax =  -4.14251966063262E-14  4.93757722079639E-01
 cg2d: Sum(rhs),rhsMax =   9.55485690568025E-14  4.94371833897431E-01
 cg2d: Sum(rhs),rhsMax =  -1.08899000927920E-13  4.94988665004401E-01
 cg2d: Sum(rhs),rhsMax =   2.58931764918202E-13  4.95604914147049E-01
 cg2d: Sum(rhs),rhsMax =  -3.53050921830800E-13  4.96219234593071E-01
 cg2d: Sum(rhs),rhsMax =   1.22360455101500E-13  4.96829246284352E-01
 cg2d: Sum(rhs),rhsMax =   1.59219859519055E-13  4.97432980223017E-01
 cg2d: Sum(rhs),rhsMax =  -9.16766662584223E-14  4.98028444355157E-01
 cg2d: Sum(rhs),rhsMax =   2.70755640130460E-14  4.98617923742528E-01
 cg2d: Sum(rhs),rhsMax =  -4.85722573273506E-16  4.99195892861353E-01
 cg2d: Sum(rhs),rhsMax =   5.58580959264532E-14  4.99761440594007E-01
 cg2d: Sum(rhs),rhsMax =   3.38326588966709E-13  5.00312386963698E-01
 cg2d: Sum(rhs),rhsMax =   9.32587340685131E-14  5.00847254908213E-01
 cg2d: Sum(rhs),rhsMax =  -2.90170665273592E-13  5.01365031222708E-01
 cg2d: Sum(rhs),rhsMax =  -1.19390608510628E-13  5.01864847092007E-01
 cg2d: Sum(rhs),rhsMax =  -1.70224945250652E-13  5.02346137030404E-01
 cg2d: Sum(rhs),rhsMax =  -4.23272528138341E-15  5.02808639920819E-01
 cg2d: Sum(rhs),rhsMax =  -1.57263091438153E-13  5.03251677255570E-01
 cg2d: Sum(rhs),rhsMax =   5.06122921350993E-14  5.03675410268213E-01
 cg2d: Sum(rhs),rhsMax =   7.81597009336110E-14  5.04081120818097E-01
 cg2d: Sum(rhs),rhsMax =  -7.08044733954694E-14  5.04470133910242E-01
 cg2d: Sum(rhs),rhsMax =  -1.33573707650214E-13  5.04844458930573E-01
 cg2d: Sum(rhs),rhsMax =   1.30895294603306E-13  5.05206829344438E-01
 cg2d: Sum(rhs),rhsMax =   1.15601972439094E-14  5.05559193797532E-01
 cg2d: Sum(rhs),rhsMax =  -1.71390679426509E-14  5.05904289547797E-01
 cg2d: Sum(rhs),rhsMax =   1.17669762822459E-13  5.06244579603671E-01
 cg2d: Sum(rhs),rhsMax =   3.17801340798951E-14  5.06582657352750E-01
 cg2d: Sum(rhs),rhsMax =  -1.20903287381680E-13  5.06921483960549E-01
 cg2d: Sum(rhs),rhsMax =   3.66276453611647E-13  5.07263118357824E-01
 cg2d: Sum(rhs),rhsMax =   1.27106658531773E-13  5.07603664724706E-01
 cg2d: Sum(rhs),rhsMax =  -8.36830604811212E-14  5.07949505184897E-01
 cg2d: Sum(rhs),rhsMax =  -2.57099896927571E-13  5.08303665237883E-01
 cg2d: Sum(rhs),rhsMax =  -1.62314606200198E-13  5.08666429623335E-01
 cg2d: Sum(rhs),rhsMax =   2.01616501271928E-13  5.09039317257108E-01
 cg2d: Sum(rhs),rhsMax =  -1.40415457039467E-13  5.09423468179962E-01
 cg2d: Sum(rhs),rhsMax =   1.41733846881209E-13  5.09819479708904E-01
 cg2d: Sum(rhs),rhsMax =  -1.93442484253126E-13  5.10227613357038E-01
 cg2d: Sum(rhs),rhsMax =  -5.05290254082524E-14  5.10648159554137E-01
 cg2d: Sum(rhs),rhsMax =   6.37823127647152E-14  5.11081177489686E-01
 cg2d: Sum(rhs),rhsMax =   5.00571806227867E-14  5.11525771215479E-01
 cg2d: Sum(rhs),rhsMax =   1.68198788230711E-13  5.11981219175012E-01
 cg2d: Sum(rhs),rhsMax =  -4.33958424750358E-14  5.12446428039067E-01
 cg2d: Sum(rhs),rhsMax =   1.70682912248310E-13  5.12920086455181E-01
 cg2d: Sum(rhs),rhsMax =   2.80664380625240E-13  5.13400715665047E-01
 cg2d: Sum(rhs),rhsMax =   7.63972218820186E-14  5.13881113933555E-01
 cg2d: Sum(rhs),rhsMax =  -5.96744875736022E-16  5.14364720822137E-01
 cg2d: Sum(rhs),rhsMax =  -1.62730939834432E-13  5.14850169740451E-01
 cg2d: Sum(rhs),rhsMax =   8.71525074330748E-15  5.15335209140713E-01
 cg2d: Sum(rhs),rhsMax =  -8.77076189453874E-14  5.15817493951958E-01
 cg2d: Sum(rhs),rhsMax =  -1.43718370537727E-13  5.16294746446551E-01
 cg2d: Sum(rhs),rhsMax =  -2.28053687045815E-13  5.16764746006490E-01
 cg2d: Sum(rhs),rhsMax =  -1.10286779708701E-13  5.17225878197519E-01
 cg2d: Sum(rhs),rhsMax =   1.69961267282304E-13  5.17676398478547E-01
 cg2d: Sum(rhs),rhsMax =  -4.65877336708331E-14  5.18113676775633E-01
 cg2d: Sum(rhs),rhsMax =   1.07719388964256E-13  5.18536117018716E-01
 cg2d: Sum(rhs),rhsMax =  -2.17145745828873E-13  5.18942268815528E-01
 cg2d: Sum(rhs),rhsMax =  -2.45539699683661E-13  5.19331314704266E-01
 cg2d: Sum(rhs),rhsMax =  -5.35821387259716E-14  5.19702949303665E-01
 cg2d: Sum(rhs),rhsMax =   5.23331378232683E-14  5.20057137514706E-01
 cg2d: Sum(rhs),rhsMax =  -9.97535387625703E-14  5.20392365235197E-01
 cg2d: Sum(rhs),rhsMax =  -5.48172618408671E-14  5.20709387650963E-01
 cg2d: Sum(rhs),rhsMax =   1.46466172523674E-13  5.21010726019326E-01
 cg2d: Sum(rhs),rhsMax =  -1.34947608643188E-13  5.21294372373052E-01
 cg2d: Sum(rhs),rhsMax =  -6.07708328104195E-14  5.21560782422871E-01
 cg2d: Sum(rhs),rhsMax =   2.96804247845728E-13  5.21810951526119E-01
 cg2d: Sum(rhs),rhsMax =  -1.11993747609063E-13  5.22046054200251E-01
 cg2d: Sum(rhs),rhsMax =  -7.10959069394335E-14  5.22267338294876E-01
 cg2d: Sum(rhs),rhsMax =   6.12843109593086E-14  5.22476081076339E-01
 cg2d: Sum(rhs),rhsMax =  -1.15671361378133E-13  5.22673933308372E-01
 cg2d: Sum(rhs),rhsMax =  -1.97689087322317E-13  5.22862061954316E-01
 cg2d: Sum(rhs),rhsMax =  -4.48530101948563E-14  5.23041780249147E-01
 cg2d: Sum(rhs),rhsMax =  -1.17295062551648E-13  5.23212937261956E-01
 cg2d: Sum(rhs),rhsMax =   3.09752223870419E-14  5.23374451151659E-01
 cg2d: Sum(rhs),rhsMax =  -7.63694663064030E-14  5.23526258058467E-01
 cg2d: Sum(rhs),rhsMax =  -4.70457006684910E-14  5.23668686554181E-01
 cg2d: Sum(rhs),rhsMax =  -1.12021503184678E-13  5.23802425338875E-01
 cg2d: Sum(rhs),rhsMax =  -1.48867029814426E-13  5.23928716409975E-01
 cg2d: Sum(rhs),rhsMax =   7.42877981352308E-14  5.24049273679977E-01
 cg2d: Sum(rhs),rhsMax =  -1.07538977722754E-13  5.24166176917410E-01
 cg2d: Sum(rhs),rhsMax =  -1.74069092473417E-13  5.24280960829619E-01
 cg2d: Sum(rhs),rhsMax =  -2.76167977375508E-14  5.24394803050091E-01
 cg2d: Sum(rhs),rhsMax =  -9.51599909981837E-14  5.24508513458949E-01
 cg2d: Sum(rhs),rhsMax =  -1.14075415780235E-14  5.24623143917820E-01
 cg2d: Sum(rhs),rhsMax =   8.09907696464052E-14  5.24736533736339E-01
 cg2d: Sum(rhs),rhsMax =  -1.45355949499049E-13  5.24848214184714E-01
 cg2d: Sum(rhs),rhsMax =   9.40914013369820E-14  5.24957512570239E-01
 cg2d: Sum(rhs),rhsMax =   4.45615766508922E-14  5.25063560091498E-01
 cg2d: Sum(rhs),rhsMax =  -3.83304499251835E-14  5.25097706057959E-01
 cg2d: Sum(rhs),rhsMax =  -2.25403029574522E-13  5.25125310354283E-01
 cg2d: Sum(rhs),rhsMax =  -1.36127220606852E-13  5.25147729445355E-01
 cg2d: Sum(rhs),rhsMax =   6.46011022453763E-14  5.25163297679247E-01
 cg2d: Sum(rhs),rhsMax =   3.04894998137684E-14  5.25171931176584E-01
 cg2d: Sum(rhs),rhsMax =   8.75965966429249E-14  5.25173927253415E-01
 cg2d: Sum(rhs),rhsMax =   1.22166166072191E-13  5.25169285618191E-01
 cg2d: Sum(rhs),rhsMax =  -3.08225667211559E-14  5.25158141332238E-01
 cg2d: Sum(rhs),rhsMax =   4.30766533554561E-14  5.25140714819422E-01
 cg2d: Sum(rhs),rhsMax =   7.56200657647810E-14  5.25117702910965E-01
 cg2d: Sum(rhs),rhsMax =  -3.36120020705266E-14  5.25089874139792E-01
 cg2d: Sum(rhs),rhsMax =  -4.06619182768964E-15  5.25070313682080E-01
 cg2d: Sum(rhs),rhsMax =   1.41400779973821E-13  5.25044490036186E-01
 cg2d: Sum(rhs),rhsMax =   3.64458463408823E-13  5.25012165824038E-01
 cg2d: Sum(rhs),rhsMax =  -1.26620935958499E-13  5.24973843777060E-01
 cg2d: Sum(rhs),rhsMax =  -2.15910622713977E-13  5.24929698993583E-01
 cg2d: Sum(rhs),rhsMax =   2.90184543061400E-14  5.24879913056593E-01
 cg2d: Sum(rhs),rhsMax =  -5.29437604868122E-14  5.24824477198676E-01
 cg2d: Sum(rhs),rhsMax =  -5.31935606673528E-14  5.24763255819731E-01
 cg2d: Sum(rhs),rhsMax =   2.48967513272191E-14  5.24696148737769E-01
 cg2d: Sum(rhs),rhsMax =   4.42701431069281E-15  5.24614255514498E-01
 cg2d: Sum(rhs),rhsMax =  -1.18099974244501E-14  5.24526893757050E-01
 cg2d: Sum(rhs),rhsMax =  -5.29298826990043E-14  5.24434041654746E-01
 cg2d: Sum(rhs),rhsMax =  -2.09832151654155E-14  5.24334958445852E-01
 cg2d: Sum(rhs),rhsMax =   4.47836212558173E-14  5.24191815304327E-01
 cg2d: Sum(rhs),rhsMax =  -1.43204892388837E-13  5.23852721556930E-01
 cg2d: Sum(rhs),rhsMax =  -2.02129979420818E-13  5.23503107554482E-01
 cg2d: Sum(rhs),rhsMax =   2.70478084374304E-14  5.23147804532215E-01
 cg2d: Sum(rhs),rhsMax =  -1.27162169683004E-13  5.22784844556990E-01
 cg2d: Sum(rhs),rhsMax =  -3.03174152449515E-13  5.22414117759915E-01
 cg2d: Sum(rhs),rhsMax =  -9.53681578153009E-14  5.22035789953204E-01
 cg2d: Sum(rhs),rhsMax =   1.58192903221277E-13  5.21650061160043E-01
 cg2d: Sum(rhs),rhsMax =  -1.94927407548562E-13  5.21257718843938E-01
 cg2d: Sum(rhs),rhsMax =  -2.62595500899465E-13  5.20859091992428E-01
 cg2d: Sum(rhs),rhsMax =   1.01460506662931E-13  5.20454700168091E-01
 cg2d: Sum(rhs),rhsMax =  -7.41212646815370E-14  5.20044808747115E-01
 cg2d: Sum(rhs),rhsMax =   1.39374622953881E-13  5.19630368245260E-01
 cg2d: Sum(rhs),rhsMax =  -1.97619698383278E-14  5.19211476321999E-01
 cg2d: Sum(rhs),rhsMax =  -7.10542735760100E-15  5.18787423904598E-01
 cg2d: Sum(rhs),rhsMax =  -6.96803725830364E-14  5.18358591749256E-01
 cg2d: Sum(rhs),rhsMax =   2.27762253501851E-13  5.17925258902843E-01
 cg2d: Sum(rhs),rhsMax =  -2.04697370165263E-13  5.17489064506640E-01
 cg2d: Sum(rhs),rhsMax =   7.91033905045424E-14  5.17050310207911E-01
 cg2d: Sum(rhs),rhsMax =  -1.07094888512904E-13  5.16609988119608E-01
 cg2d: Sum(rhs),rhsMax =   1.07844289054526E-13  5.16169215986115E-01
 cg2d: Sum(rhs),rhsMax =  -1.08149600386298E-13  5.15729276328644E-01
 cg2d: Sum(rhs),rhsMax =  -6.11038997178071E-14  5.15291305185608E-01
 cg2d: Sum(rhs),rhsMax =  -6.96526170074208E-14  5.14851500016579E-01
 cg2d: Sum(rhs),rhsMax =  -4.35762537165374E-14  5.14416301299501E-01
 cg2d: Sum(rhs),rhsMax =   6.09234884763055E-15  5.13986986776888E-01
 cg2d: Sum(rhs),rhsMax =  -4.88081797200834E-14  5.13565130511104E-01
 cg2d: Sum(rhs),rhsMax =   2.27456942170079E-13  5.13151756354067E-01
 cg2d: Sum(rhs),rhsMax =  -1.50573997714787E-14  5.12747715961891E-01
 cg2d: Sum(rhs),rhsMax =   7.87842013849627E-14  5.12353541202296E-01
 cg2d: Sum(rhs),rhsMax =  -6.27276008913213E-15  5.11969603833542E-01
 cg2d: Sum(rhs),rhsMax =   3.75949271713694E-14  5.11596187963438E-01
 cg2d: Sum(rhs),rhsMax =   1.41775480244632E-13  5.11233273217753E-01
 cg2d: Sum(rhs),rhsMax =  -1.37945210809676E-13  5.10880693681441E-01
 cg2d: Sum(rhs),rhsMax =   8.45157277495900E-15  5.10536666656861E-01
 cg2d: Sum(rhs),rhsMax =  -1.17683640610267E-13  5.10200945031953E-01
 cg2d: Sum(rhs),rhsMax =   2.25097718242750E-14  5.09875931369099E-01
 cg2d: Sum(rhs),rhsMax =  -2.53963516883005E-13  5.09558300491041E-01
 cg2d: Sum(rhs),rhsMax =  -1.43968170718267E-13  5.09247515467819E-01
 cg2d: Sum(rhs),rhsMax =  -1.06109565578549E-13  5.08941615153276E-01
 cg2d: Sum(rhs),rhsMax =  -1.13603570994769E-13  5.08638135302433E-01
 cg2d: Sum(rhs),rhsMax =  -2.30648833365876E-14  5.08335173724698E-01
 cg2d: Sum(rhs),rhsMax =   6.20892226521619E-14  5.08030748131773E-01
 cg2d: Sum(rhs),rhsMax =   1.36876621148474E-13  5.07723476868977E-01
 cg2d: Sum(rhs),rhsMax =   2.56281107446910E-13  5.07412334081750E-01
 cg2d: Sum(rhs),rhsMax =   3.24740234702858E-14  5.07093467420528E-01
 cg2d: Sum(rhs),rhsMax =   1.02626240838788E-13  5.06764958294526E-01
 cg2d: Sum(rhs),rhsMax =   5.04596364692134E-14  5.06424943274327E-01
 cg2d: Sum(rhs),rhsMax =   1.18002829729846E-13  5.06071743931905E-01
 cg2d: Sum(rhs),rhsMax =  -2.08930095446647E-13  5.05708276565283E-01
 cg2d: Sum(rhs),rhsMax =  -1.00197627972420E-13  5.05330086966909E-01
 cg2d: Sum(rhs),rhsMax =   5.07094366497540E-14  5.04935826085098E-01
 cg2d: Sum(rhs),rhsMax =  -4.98906471690930E-14  5.04524528879010E-01
 cg2d: Sum(rhs),rhsMax =  -2.43208231331948E-13  5.04095586775787E-01
 cg2d: Sum(rhs),rhsMax =   1.30048749547029E-13  5.03648808717190E-01
 cg2d: Sum(rhs),rhsMax =  -1.85421122900209E-13  5.03183904834625E-01
 cg2d: Sum(rhs),rhsMax =   3.15442116871623E-14  5.02701632008528E-01
 cg2d: Sum(rhs),rhsMax =   5.53584955653719E-14  5.02202833112814E-01
 cg2d: Sum(rhs),rhsMax =  -3.01703106941886E-14  5.01656442435822E-01
 cg2d: Sum(rhs),rhsMax =   7.94225796241221E-14  5.01095263720186E-01
 cg2d: Sum(rhs),rhsMax =   5.44980727212874E-14  5.00522205310277E-01
 cg2d: Sum(rhs),rhsMax =   1.48409062816768E-13  4.99939225183733E-01
 cg2d: Sum(rhs),rhsMax =   7.09293734857397E-14  4.99348642529609E-01
 cg2d: Sum(rhs),rhsMax =   7.82707232360735E-14  4.98753497858268E-01
 cg2d: Sum(rhs),rhsMax =  -1.46133105616286E-14  4.98156486596907E-01
 cg2d: Sum(rhs),rhsMax =  -1.83783543938887E-13  4.97560379944794E-01
 cg2d: Sum(rhs),rhsMax =   3.42781358853017E-14  4.96968361170757E-01
 cg2d: Sum(rhs),rhsMax =  -4.07174294281276E-14  4.96383249531340E-01
 cg2d: Sum(rhs),rhsMax =  -1.03805852802452E-14  4.95807481268646E-01
 cg2d: Sum(rhs),rhsMax =  -2.49106291150269E-14  4.95243477262390E-01
 cg2d: Sum(rhs),rhsMax =  -1.41497924488476E-13  4.94693252109148E-01
 cg2d: Sum(rhs),rhsMax =   1.08718589686418E-13  4.94157368603014E-01
 cg2d: Sum(rhs),rhsMax =   1.91832660867419E-13  4.93636719001432E-01
 cg2d: Sum(rhs),rhsMax =   1.46535561462713E-13  4.93132969657030E-01
 cg2d: Sum(rhs),rhsMax =   9.48546796664118E-14  4.92647540655989E-01
 cg2d: Sum(rhs),rhsMax =  -2.13440376484186E-14  4.92181678770759E-01
 cg2d: Sum(rhs),rhsMax =  -2.32133756661312E-13  4.91736071636097E-01
 cg2d: Sum(rhs),rhsMax =  -1.90819582357449E-14  4.91310963160206E-01
 cg2d: Sum(rhs),rhsMax =   3.38062910998360E-14  4.90906277885637E-01
 cg2d: Sum(rhs),rhsMax =  -2.23418505918005E-13  4.90521620957331E-01
 cg2d: Sum(rhs),rhsMax =   2.91031088117677E-13  4.90154996662859E-01
 cg2d: Sum(rhs),rhsMax =  -2.39377961896992E-13  4.89803503453723E-01
 cg2d: Sum(rhs),rhsMax =   5.10702591327572E-15  4.89465151479192E-01
 cg2d: Sum(rhs),rhsMax =   9.02056207507940E-14  4.89137867994161E-01
 cg2d: Sum(rhs),rhsMax =   8.30308044541539E-14  4.88819403539108E-01
 cg2d: Sum(rhs),rhsMax =  -1.53446699791004E-13  4.88507499059158E-01
 cg2d: Sum(rhs),rhsMax =   7.36216643204557E-14  4.88199375212238E-01
 cg2d: Sum(rhs),rhsMax =   1.02140518265514E-14  4.87892793746731E-01
 cg2d: Sum(rhs),rhsMax =   1.39555034195382E-13  4.87586135267516E-01
 cg2d: Sum(rhs),rhsMax =  -1.48631107421693E-13  4.87276951154550E-01
 cg2d: Sum(rhs),rhsMax =  -2.25791607633141E-13  4.86963133529098E-01
 cg2d: Sum(rhs),rhsMax =  -1.08857367564497E-13  4.86642816049188E-01
 cg2d: Sum(rhs),rhsMax =  -1.77358128183869E-14  4.86314334847277E-01
 cg2d: Sum(rhs),rhsMax =   2.15272244474818E-13  4.85976241249363E-01
 cg2d: Sum(rhs),rhsMax =  -7.89229792630408E-14  4.85633852910563E-01
 cg2d: Sum(rhs),rhsMax =  -1.99534833100756E-13  4.85294990518398E-01
 cg2d: Sum(rhs),rhsMax =  -2.94070323647588E-14  4.85116141659872E-01
 cg2d: Sum(rhs),rhsMax =   1.10994546886900E-13  4.84929559228063E-01
 cg2d: Sum(rhs),rhsMax =   3.10113046353422E-13  4.84729496226770E-01
 cg2d: Sum(rhs),rhsMax =   1.24900090270330E-14  4.84517436193291E-01
 cg2d: Sum(rhs),rhsMax =   3.12527781431982E-14  4.84293456440670E-01
 cg2d: Sum(rhs),rhsMax =  -2.39780417743418E-13  4.84058029737010E-01
 cg2d: Sum(rhs),rhsMax =   1.33962285708833E-13  4.83812009204438E-01
 cg2d: Sum(rhs),rhsMax =  -9.23705556488130E-14  4.83556786103393E-01
 cg2d: Sum(rhs),rhsMax =  -1.50268686383015E-13  4.83293854229768E-01
 cg2d: Sum(rhs),rhsMax =   4.76979566954583E-14  4.83024769244756E-01
 cg2d: Sum(rhs),rhsMax =  -3.34454686168328E-14  4.82751309734081E-01
 cg2d: Sum(rhs),rhsMax =  -3.01703106941886E-13  4.82475365581389E-01
 cg2d: Sum(rhs),rhsMax =   2.09693373776076E-14  4.82198848156118E-01
 cg2d: Sum(rhs),rhsMax =   7.24142967811758E-14  4.81923710286199E-01
 cg2d: Sum(rhs),rhsMax =   1.74402159380804E-13  4.81651139217774E-01
 cg2d: Sum(rhs),rhsMax =  -5.22776266720371E-14  4.81381665589181E-01
 cg2d: Sum(rhs),rhsMax =   1.17586496095612E-13  4.81117478457887E-01
 cg2d: Sum(rhs),rhsMax =   8.45018499617822E-14  4.80860737882941E-01
 cg2d: Sum(rhs),rhsMax =   4.23550083894497E-14  4.80613317944236E-01
 cg2d: Sum(rhs),rhsMax =   1.47409862094605E-13  4.80376916611625E-01
 cg2d: Sum(rhs),rhsMax =  -9.68530811107371E-14  4.80152981562058E-01
 cg2d: Sum(rhs),rhsMax =  -7.30387972325275E-14  4.79942796588713E-01
 cg2d: Sum(rhs),rhsMax =   6.97081281586520E-14  4.79747132557480E-01
 cg2d: Sum(rhs),rhsMax =  -1.56624713198994E-13  4.79566548698152E-01
 cg2d: Sum(rhs),rhsMax =   2.45775622076394E-14  4.79399655742527E-01
 cg2d: Sum(rhs),rhsMax =  -3.00592883917261E-14  4.79245097041189E-01
 cg2d: Sum(rhs),rhsMax =   8.18789480661053E-14  4.79102172932701E-01
 cg2d: Sum(rhs),rhsMax =  -7.41073868937292E-15  4.78970019984268E-01
 cg2d: Sum(rhs),rhsMax =  -3.96765953425415E-14  4.78848004815666E-01
 cg2d: Sum(rhs),rhsMax =   2.76584311009742E-13  4.78733966935321E-01
 cg2d: Sum(rhs),rhsMax =  -1.78135284301106E-13  4.78626157512029E-01
 cg2d: Sum(rhs),rhsMax =   5.44425615700561E-14  4.78522973472881E-01
 cg2d: Sum(rhs),rhsMax =   1.33379418620905E-13  4.78422613464906E-01
 cg2d: Sum(rhs),rhsMax =   1.32865940472016E-13  4.78323121025639E-01
 cg2d: Sum(rhs),rhsMax =   3.54438700611581E-14  4.78222447870770E-01
 cg2d: Sum(rhs),rhsMax =   4.44089209850063E-16  4.78118767251612E-01
 cg2d: Sum(rhs),rhsMax =  -3.56104035148519E-14  4.78010300851361E-01
 cg2d: Sum(rhs),rhsMax =  -2.33993380227560E-13  4.77895168059519E-01
 cg2d: Sum(rhs),rhsMax =  -1.58192903221277E-13  4.77771849013773E-01
 cg2d: Sum(rhs),rhsMax =  -7.35245198058010E-14  4.77639029180282E-01
 cg2d: Sum(rhs),rhsMax =   1.24997234784985E-13  4.77495528005445E-01
 cg2d: Sum(rhs),rhsMax =   3.60128593612785E-14  4.77339881540837E-01
 cg2d: Sum(rhs),rhsMax =  -2.75321432319231E-13  4.77169032157419E-01
 cg2d: Sum(rhs),rhsMax =  -1.65978342181461E-14  4.76991389379840E-01
 cg2d: Sum(rhs),rhsMax =   2.89351875792931E-14  4.76799763155735E-01
 cg2d: Sum(rhs),rhsMax =  -4.03843625207401E-15  4.76591797224589E-01
 cg2d: Sum(rhs),rhsMax =   2.90142909697977E-13  4.76367412422081E-01
 cg2d: Sum(rhs),rhsMax =   9.50906020591447E-14  4.76126780650450E-01
 cg2d: Sum(rhs),rhsMax =  -1.53446699791004E-13  4.75870695083857E-01
 cg2d: Sum(rhs),rhsMax =   9.72694147449715E-14  4.75599616765555E-01
 cg2d: Sum(rhs),rhsMax =  -1.61690105748846E-13  4.75314208681965E-01
 cg2d: Sum(rhs),rhsMax =  -1.15088494290205E-13  4.75015382405185E-01
 cg2d: Sum(rhs),rhsMax =  -6.22557561058557E-14  4.74702819599994E-01
 cg2d: Sum(rhs),rhsMax =   1.82340254006874E-13  4.74377210118186E-01
 cg2d: Sum(rhs),rhsMax =  -7.01522173685021E-14  4.74039929072410E-01
 cg2d: Sum(rhs),rhsMax =   1.06373243546898E-13  4.73692671167450E-01
 cg2d: Sum(rhs),rhsMax =  -9.26064780415459E-14  4.73337333313614E-01
 cg2d: Sum(rhs),rhsMax =   6.89170942536066E-14  4.72975804911956E-01
 cg2d: Sum(rhs),rhsMax =  -1.07122644088520E-13  4.72609975164475E-01
 cg2d: Sum(rhs),rhsMax =   1.32338584535319E-13  4.72241617041669E-01
 cg2d: Sum(rhs),rhsMax =   2.29830043885215E-13  4.71872431426428E-01
 cg2d: Sum(rhs),rhsMax =   2.67008637422350E-14  4.71504004829545E-01
 cg2d: Sum(rhs),rhsMax =  -1.99701366554450E-13  4.71137836814814E-01
 cg2d: Sum(rhs),rhsMax =   3.99541510986978E-14  4.70774928810231E-01
 cg2d: Sum(rhs),rhsMax =   3.57172624809721E-13  4.70637770219585E-01
 cg2d: Sum(rhs),rhsMax =  -7.33718641399150E-14  4.70672467474696E-01
 cg2d: Sum(rhs),rhsMax =   2.09332551293073E-13  4.70705810658219E-01
 cg2d: Sum(rhs),rhsMax =  -4.70457006684910E-15  4.70737711134949E-01
 cg2d: Sum(rhs),rhsMax =   1.32602262503667E-13  4.70768321657773E-01
 cg2d: Sum(rhs),rhsMax =  -2.81163980986321E-14  4.70797570948257E-01
 cg2d: Sum(rhs),rhsMax =  -1.48464573967999E-13  4.70825704996141E-01
 cg2d: Sum(rhs),rhsMax =   9.85739267989061E-14  4.70852845232606E-01
 cg2d: Sum(rhs),rhsMax =   9.47020240005259E-14  4.70879158874813E-01
 cg2d: Sum(rhs),rhsMax =   2.98636115836359E-13  4.70904608845610E-01
 cg2d: Sum(rhs),rhsMax =   2.79151701754188E-13  4.70929414713787E-01
 cg2d: Sum(rhs),rhsMax =   7.02077285197333E-14  4.70953456382691E-01
 cg2d: Sum(rhs),rhsMax =   1.28258514919821E-13  4.70976864482736E-01
 cg2d: Sum(rhs),rhsMax =  -9.02333763264096E-14  4.70999480272050E-01
 cg2d: Sum(rhs),rhsMax =   6.56835696943858E-14  4.71021319352132E-01
 cg2d: Sum(rhs),rhsMax =   7.62445662161326E-14  4.71042174952359E-01
 cg2d: Sum(rhs),rhsMax =   1.89639970393785E-13  4.71061957591895E-01
 cg2d: Sum(rhs),rhsMax =  -5.05151476204446E-15  4.71080332092897E-01
 cg2d: Sum(rhs),rhsMax =   4.77395900588817E-15  4.71097156304516E-01
 cg2d: Sum(rhs),rhsMax =  -2.32341923478430E-13  4.71112122436237E-01
 cg2d: Sum(rhs),rhsMax =   1.56999413469805E-13  4.71125076336142E-01
 cg2d: Sum(rhs),rhsMax =  -2.55379051239402E-13  4.71135645726645E-01
 cg2d: Sum(rhs),rhsMax =   1.04888320251462E-13  4.71143605976764E-01
 cg2d: Sum(rhs),rhsMax =   1.69364522406568E-13  4.71148770464730E-01
 cg2d: Sum(rhs),rhsMax =   4.51999548900517E-14  4.71151095712822E-01
 cg2d: Sum(rhs),rhsMax =  -7.74103003919890E-14  4.71150429322316E-01
 cg2d: Sum(rhs),rhsMax =   1.07441833208100E-13  4.71146154679062E-01
 cg2d: Sum(rhs),rhsMax =   1.67574287779360E-13  4.71139051093220E-01
 cg2d: Sum(rhs),rhsMax =   9.40775235491742E-14  4.71129375696612E-01
 cg2d: Sum(rhs),rhsMax =   8.48210390813620E-14  4.71117313324692E-01
 cg2d: Sum(rhs),rhsMax =  -2.19962936753859E-14  4.71103430048489E-01
 cg2d: Sum(rhs),rhsMax =  -6.37961905525231E-14  4.71088257218433E-01
 cg2d: Sum(rhs),rhsMax =  -3.50719453479087E-13  4.71074498896322E-01
 cg2d: Sum(rhs),rhsMax =   6.27553564669370E-14  4.71061056728840E-01
 cg2d: Sum(rhs),rhsMax =  -2.24140150884011E-13  4.71048912862771E-01
 cg2d: Sum(rhs),rhsMax =  -1.07205910815367E-13  4.71039005873392E-01
 cg2d: Sum(rhs),rhsMax =   1.30978561330153E-13  4.71032606624103E-01
 cg2d: Sum(rhs),rhsMax =   1.40928935188356E-13  4.71030870926910E-01
 cg2d: Sum(rhs),rhsMax =   7.64249774576342E-14  4.71035114365586E-01
 cg2d: Sum(rhs),rhsMax =   5.62050406216485E-15  4.71046555309705E-01
 cg2d: Sum(rhs),rhsMax =  -1.75526260193237E-13  4.71066526323871E-01
 cg2d: Sum(rhs),rhsMax =  -1.98452365651747E-14  4.71096094615592E-01
 cg2d: Sum(rhs),rhsMax =   4.39925873507718E-14  4.71136519557410E-01
 cg2d: Sum(rhs),rhsMax =   1.43926537354844E-13  4.71188796723498E-01
 cg2d: Sum(rhs),rhsMax =  -1.07122644088520E-13  4.71253886643678E-01
 cg2d: Sum(rhs),rhsMax =   5.68989300120393E-15  4.71332467264917E-01
 cg2d: Sum(rhs),rhsMax =   1.22984955552852E-13  4.71425162922829E-01
 cg2d: Sum(rhs),rhsMax =  -8.68194405256872E-14  4.71530319720504E-01
 cg2d: Sum(rhs),rhsMax =  -2.92543766988729E-14  4.71650081511811E-01
 cg2d: Sum(rhs),rhsMax =  -1.24178445304324E-13  4.71784359239195E-01
 cg2d: Sum(rhs),rhsMax =   2.18491891246231E-13  4.71932546066394E-01
 cg2d: Sum(rhs),rhsMax =  -2.35242381130263E-13  4.72094317503830E-01
 cg2d: Sum(rhs),rhsMax =  -8.05189248609395E-14  4.72268817401858E-01
 cg2d: Sum(rhs),rhsMax =  -1.87905246917808E-13  4.72454778529961E-01
 cg2d: Sum(rhs),rhsMax =   2.68826627625174E-13  4.72650898553529E-01
 cg2d: Sum(rhs),rhsMax =   2.03073668991749E-13  4.72855478815404E-01
 cg2d: Sum(rhs),rhsMax =   2.42944553363600E-13  4.73066791130221E-01
 cg2d: Sum(rhs),rhsMax =  -8.01164690145129E-14  4.73282763306398E-01
 cg2d: Sum(rhs),rhsMax =   1.37903577446252E-13  4.73501382703085E-01
 cg2d: Sum(rhs),rhsMax =   1.05374042824735E-13  4.73720389878511E-01
 cg2d: Sum(rhs),rhsMax =   5.44564393578639E-14  4.73937648762364E-01
 cg2d: Sum(rhs),rhsMax =  -1.07941433569181E-13  4.74150814647913E-01
 cg2d: Sum(rhs),rhsMax =  -8.06854583146333E-14  4.74357722008798E-01
 cg2d: Sum(rhs),rhsMax =  -2.26429985872301E-13  4.74556127581352E-01
 cg2d: Sum(rhs),rhsMax =  -5.47201173262124E-14  4.74744116716808E-01
 cg2d: Sum(rhs),rhsMax =  -8.15736367343334E-14  4.74919721840605E-01
 cg2d: Sum(rhs),rhsMax =   6.46566133966076E-14  4.75081381179627E-01
 cg2d: Sum(rhs),rhsMax =  -2.14689377386890E-14  4.75227595400826E-01
 cg2d: Sum(rhs),rhsMax =  -8.29197821516914E-14  4.75357305061798E-01
 cg2d: Sum(rhs),rhsMax =   2.22682983164191E-13  4.75469581270381E-01
 cg2d: Sum(rhs),rhsMax =   1.19709797630208E-13  4.75563933050974E-01
 cg2d: Sum(rhs),rhsMax =  -1.57610036133349E-13  4.75640119818834E-01
 cg2d: Sum(rhs),rhsMax =  -2.18297602216921E-13  4.75698331319264E-01
 cg2d: Sum(rhs),rhsMax =   7.04991620636974E-15  4.75738975762455E-01
 cg2d: Sum(rhs),rhsMax =  -1.65145674912992E-14  4.75762971202781E-01
 cg2d: Sum(rhs),rhsMax =  -1.26454402504805E-13  4.75771205181353E-01
 cg2d: Sum(rhs),rhsMax =   3.89549503765352E-14  4.75765055979826E-01
 cg2d: Sum(rhs),rhsMax =   7.11375403028569E-14  4.75746189682876E-01
 cg2d: Sum(rhs),rhsMax =  -1.64868119156836E-13  4.75716568552049E-01
 cg2d: Sum(rhs),rhsMax =   1.00128239033381E-13  4.75678238262320E-01
 cg2d: Sum(rhs),rhsMax =   1.70502501006808E-13  4.75633261948068E-01
 cg2d: Sum(rhs),rhsMax =   2.25708340906294E-13  4.75583974784453E-01
 cg2d: Sum(rhs),rhsMax =   1.36696209906972E-14  4.75533057563742E-01
 cg2d: Sum(rhs),rhsMax =   1.44065315232922E-13  4.75482736767092E-01
 cg2d: Sum(rhs),rhsMax =  -4.47003545289704E-14  4.75435341709655E-01
 cg2d: Sum(rhs),rhsMax =  -5.81479309147426E-15  4.75393028805953E-01
 cg2d: Sum(rhs),rhsMax =   3.92047505570758E-14  4.75357865795952E-01
 cg2d: Sum(rhs),rhsMax =   3.16413562018170E-14  4.75331660404898E-01
 cg2d: Sum(rhs),rhsMax =   4.93771690202038E-14  4.75316108334303E-01
 cg2d: Sum(rhs),rhsMax =  -5.94801985442928E-14  4.75312503834674E-01
 cg2d: Sum(rhs),rhsMax =  -4.34929869896905E-14  4.75321829870102E-01
 cg2d: Sum(rhs),rhsMax =   1.62092561595273E-14  4.75344780877013E-01
 cg2d: Sum(rhs),rhsMax =  -1.65215063852031E-13  4.75381925516602E-01
 cg2d: Sum(rhs),rhsMax =   5.96189764223709E-14  4.75433289323057E-01
 cg2d: Sum(rhs),rhsMax =   1.32491240201205E-13  4.75500230174063E-01
 cg2d: Sum(rhs),rhsMax =   4.19247969674075E-14  4.75580983475697E-01
 cg2d: Sum(rhs),rhsMax =   7.41351424693448E-14  4.75674426365213E-01
 cg2d: Sum(rhs),rhsMax =  -2.31231700453804E-13  4.75779365313371E-01
 cg2d: Sum(rhs),rhsMax =   8.96782648140970E-14  4.75894486661535E-01
 cg2d: Sum(rhs),rhsMax =   2.92404989110651E-14  4.76016429489787E-01
 cg2d: Sum(rhs),rhsMax =  -5.39290834211670E-14  4.76145202841071E-01
 cg2d: Sum(rhs),rhsMax =  -2.35117481039993E-13  4.76278980919792E-01
 cg2d: Sum(rhs),rhsMax =   1.59705582092329E-13  4.76415341107311E-01
 cg2d: Sum(rhs),rhsMax =  -5.69544411632705E-14  4.76552760714180E-01
 cg2d: Sum(rhs),rhsMax =   2.43499664875912E-13  4.76689173919324E-01
 cg2d: Sum(rhs),rhsMax =  -2.34465225013025E-13  4.76822551685783E-01
 cg2d: Sum(rhs),rhsMax =   1.72098446604707E-13  4.76951195902775E-01
 cg2d: Sum(rhs),rhsMax =   1.88293824976427E-13  4.77073305357331E-01
 cg2d: Sum(rhs),rhsMax =  -2.73531197692023E-13  4.77187772878831E-01
 cg2d: Sum(rhs),rhsMax =   6.20337115009306E-14  4.77293044807860E-01
 cg2d: Sum(rhs),rhsMax =   2.22433182983650E-13  4.77388188951077E-01
 cg2d: Sum(rhs),rhsMax =   1.46355150221211E-13  4.77472470097681E-01
 cg2d: Sum(rhs),rhsMax =  -1.25274790541141E-13  4.77545982090571E-01
 cg2d: Sum(rhs),rhsMax =   1.86656246015104E-13  4.77607104911423E-01
 cg2d: Sum(rhs),rhsMax =   1.37126421329015E-13  4.77657421534748E-01
 cg2d: Sum(rhs),rhsMax =  -2.00686689488805E-13  4.77697277425894E-01
 cg2d: Sum(rhs),rhsMax =  -1.21389009954953E-13  4.77727466779068E-01
 cg2d: Sum(rhs),rhsMax =   3.48845952125032E-13  4.77749133198771E-01
 cg2d: Sum(rhs),rhsMax =  -2.30371277609720E-15  4.77763670917881E-01
 cg2d: Sum(rhs),rhsMax =   2.40502062709425E-13  4.77772608719193E-01
 cg2d: Sum(rhs),rhsMax =   5.27078380940793E-14  4.77777768521865E-01
 cg2d: Sum(rhs),rhsMax =   1.24303345394594E-13  4.77780886704525E-01
 cg2d: Sum(rhs),rhsMax =   1.41067713066434E-13  4.77783947750889E-01
 cg2d: Sum(rhs),rhsMax =  -3.79030140607028E-13  4.77788888334418E-01
 cg2d: Sum(rhs),rhsMax =   1.68975944347949E-13  4.77797677735897E-01
 cg2d: Sum(rhs),rhsMax =   5.33739719088544E-14  4.77812205066657E-01
 cg2d: Sum(rhs),rhsMax =   7.30387972325275E-14  4.77834335231983E-01
 cg2d: Sum(rhs),rhsMax =   7.81735787214188E-14  4.77865770315475E-01
 cg2d: Sum(rhs),rhsMax =   2.13468132059802E-13  4.77908032394879E-01
 cg2d: Sum(rhs),rhsMax =  -2.79998246810464E-13  4.77962376749737E-01
 cg2d: Sum(rhs),rhsMax =  -1.55528367962177E-13  4.78029843432460E-01
 cg2d: Sum(rhs),rhsMax =  -8.66667848598013E-14  4.78111262738871E-01
 cg2d: Sum(rhs),rhsMax =  -2.02893257750247E-14  4.78207127101393E-01
 cg2d: Sum(rhs),rhsMax =  -6.74876821094017E-14  4.78317596459756E-01
 cg2d: Sum(rhs),rhsMax =  -2.53741472278080E-13  4.78442630753524E-01
 cg2d: Sum(rhs),rhsMax =  -4.64905891561784E-15  4.78581849655584E-01
 cg2d: Sum(rhs),rhsMax =   9.46603906371024E-14  4.78734625795263E-01
 cg2d: Sum(rhs),rhsMax =  -3.66096042370145E-13  4.78900011016706E-01
 cg2d: Sum(rhs),rhsMax =  -1.63744018344403E-13  4.79076964861422E-01
 cg2d: Sum(rhs),rhsMax =   5.55805401702969E-14  4.79263780464341E-01
 cg2d: Sum(rhs),rhsMax =  -3.91076060424211E-14  4.79459092747495E-01
 cg2d: Sum(rhs),rhsMax =  -1.82909243306995E-14  4.79661197861113E-01
 cg2d: Sum(rhs),rhsMax =   2.54241072639161E-14  4.79868272513974E-01
 cg2d: Sum(rhs),rhsMax =   1.15754628104980E-13  4.80078388774750E-01
 cg2d: Sum(rhs),rhsMax =   2.44068654176033E-13  4.80289645417848E-01
 cg2d: Sum(rhs),rhsMax =  -4.19594914369270E-13  4.80500107456154E-01
 cg2d: Sum(rhs),rhsMax =  -1.97369898202737E-13  4.80707950884337E-01
 cg2d: Sum(rhs),rhsMax =  -1.19418364086243E-13  4.80911463002474E-01
 cg2d: Sum(rhs),rhsMax =   2.46788700586364E-13  4.81108857737050E-01
 cg2d: Sum(rhs),rhsMax =   2.24709140184132E-13  4.81298511876145E-01
 cg2d: Sum(rhs),rhsMax =   6.71407374142063E-14  4.81479381698584E-01
 cg2d: Sum(rhs),rhsMax =   7.86870568703080E-14  4.81650310164494E-01
 cg2d: Sum(rhs),rhsMax =   5.97299987248334E-14  4.81810435042006E-01
 cg2d: Sum(rhs),rhsMax =  -1.28189125980782E-13  4.81959135847442E-01
 cg2d: Sum(rhs),rhsMax =   2.17742490704609E-14  4.82095938435474E-01
 cg2d: Sum(rhs),rhsMax =   2.91350277237257E-13  4.82220751771942E-01
 cg2d: Sum(rhs),rhsMax =   1.12881926028763E-13  4.82332094902485E-01
 cg2d: Sum(rhs),rhsMax =  -1.24344978758018E-13  4.82431397636143E-01
 cg2d: Sum(rhs),rhsMax =   3.54563600701852E-13  4.82519189111507E-01
 cg2d: Sum(rhs),rhsMax =  -2.15522044655359E-14  4.82596048471677E-01
 cg2d: Sum(rhs),rhsMax =   2.26541008174763E-13  4.82662756408024E-01
 cg2d: Sum(rhs),rhsMax =   1.27328703136698E-13  4.82720303673735E-01
 cg2d: Sum(rhs),rhsMax =   7.34134975033385E-14  4.82769488603953E-01
 cg2d: Sum(rhs),rhsMax =   1.03306252441371E-13  4.82811278067950E-01
 cg2d: Sum(rhs),rhsMax =   8.22675261247241E-14  4.82846751427915E-01
 cg2d: Sum(rhs),rhsMax =   5.20833376427277E-14  4.82876926304562E-01
 cg2d: Sum(rhs),rhsMax =  -1.50809920107520E-13  4.82902796197507E-01
 cg2d: Sum(rhs),rhsMax =  -9.49240686054509E-15  4.82925541084797E-01
 cg2d: Sum(rhs),rhsMax =   2.11955453188750E-13  4.82946079884444E-01
 cg2d: Sum(rhs),rhsMax =   5.36654054528185E-14  4.82965143893620E-01
 cg2d: Sum(rhs),rhsMax =  -6.03544991761851E-14  4.82983823672828E-01
 cg2d: Sum(rhs),rhsMax =   2.00395255944841E-14  4.83001944536585E-01
 cg2d: Sum(rhs),rhsMax =  -2.46469511466785E-14  4.83020463661206E-01
 cg2d: Sum(rhs),rhsMax =  -3.15553139174085E-13  4.83039846964142E-01
 cg2d: Sum(rhs),rhsMax =   1.69003699923564E-13  4.83060303326019E-01
 cg2d: Sum(rhs),rhsMax =  -2.48134846003722E-14  4.83081953805932E-01
 cg2d: Sum(rhs),rhsMax =  -2.22127871651878E-13  4.83104885897181E-01
 cg2d: Sum(rhs),rhsMax =   2.40085729075190E-14  4.83129039554073E-01
 cg2d: Sum(rhs),rhsMax =   9.87543380404077E-14  4.83154323351267E-01
 cg2d: Sum(rhs),rhsMax =  -8.10462807976364E-14  4.83180511255510E-01
 cg2d: Sum(rhs),rhsMax =   3.60544927247020E-14  4.83207454949145E-01
 cg2d: Sum(rhs),rhsMax =  -1.85781945383212E-13  4.83236336356209E-01
 cg2d: Sum(rhs),rhsMax =   1.04097286346416E-13  4.83265560724494E-01
 cg2d: Sum(rhs),rhsMax =   1.38694611351298E-13  4.83294802299372E-01
 cg2d: Sum(rhs),rhsMax =   2.27359797655424E-13  4.83324077268292E-01
 cg2d: Sum(rhs),rhsMax =   3.65818486613989E-14  4.83353329185263E-01
 cg2d: Sum(rhs),rhsMax =   3.37230243729891E-14  4.83383196504897E-01
 cg2d: Sum(rhs),rhsMax =   7.73547892407578E-14  4.83412930600266E-01
 cg2d: Sum(rhs),rhsMax =   1.24733556816636E-13  4.83442335143031E-01
 cg2d: Sum(rhs),rhsMax =   5.17086373719167E-14  4.83471858784359E-01
 cg2d: Sum(rhs),rhsMax =  -4.16333634234434E-15  4.83501802202611E-01
 cg2d: Sum(rhs),rhsMax =   6.66827704165485E-14  4.83532591726632E-01
 cg2d: Sum(rhs),rhsMax =   4.57897608718838E-13  4.83566571037599E-01
 cg2d: Sum(rhs),rhsMax =   5.81201753391269E-14  4.83602361940157E-01
 cg2d: Sum(rhs),rhsMax =   1.08899000927920E-13  4.83640388661602E-01
 cg2d: Sum(rhs),rhsMax =  -4.49182357975531E-13  4.83681536109380E-01
 cg2d: Sum(rhs),rhsMax =   1.65048530398337E-13  4.83726872312227E-01
 cg2d: Sum(rhs),rhsMax =  -1.04596886707498E-13  4.83776057436702E-01
 cg2d: Sum(rhs),rhsMax =   7.07767178198537E-14  4.83830165585882E-01
 cg2d: Sum(rhs),rhsMax =  -3.96904731303493E-15  4.83889779203125E-01
 cg2d: Sum(rhs),rhsMax =  -3.36675132217579E-14  4.83955401555142E-01
 cg2d: Sum(rhs),rhsMax =  -6.33659791304808E-14  4.84027489675608E-01
 cg2d: Sum(rhs),rhsMax =  -1.43079992298567E-14  4.84105888388753E-01
 cg2d: Sum(rhs),rhsMax =   1.12007625396870E-13  4.84192373784113E-01
 cg2d: Sum(rhs),rhsMax =  -1.63632996041940E-13  4.84285797415959E-01
 cg2d: Sum(rhs),rhsMax =   1.95315985607181E-13  4.84386603990292E-01
 cg2d: Sum(rhs),rhsMax =   2.08846828719800E-13  4.84492676931007E-01
 cg2d: Sum(rhs),rhsMax =   6.56558141187702E-14  4.84605514257153E-01
 cg2d: Sum(rhs),rhsMax =  -3.97737398571962E-14  4.84724927597221E-01
 cg2d: Sum(rhs),rhsMax =  -1.73583369900143E-13  4.84850439887476E-01
 cg2d: Sum(rhs),rhsMax =  -2.94195223737859E-13  4.84981334734484E-01
 cg2d: Sum(rhs),rhsMax =  -1.18377530000657E-13  4.85116678068672E-01
 cg2d: Sum(rhs),rhsMax =   6.13675776861555E-14  4.85255816347453E-01
 cg2d: Sum(rhs),rhsMax =   1.22651888645464E-13  4.85397610340190E-01
 cg2d: Sum(rhs),rhsMax =   1.71113123670352E-14  4.85541088318062E-01
 cg2d: Sum(rhs),rhsMax =   8.60145288328340E-14  4.85684868648489E-01
 cg2d: Sum(rhs),rhsMax =  -2.01089145335231E-13  4.85827835592038E-01
 cg2d: Sum(rhs),rhsMax =  -2.47579734491410E-14  4.85968916898058E-01
 cg2d: Sum(rhs),rhsMax =   1.77635683940025E-13  4.86107077757520E-01
 cg2d: Sum(rhs),rhsMax =  -4.32848201725733E-14  4.86241387979484E-01
 cg2d: Sum(rhs),rhsMax =  -1.63535851527286E-13  4.86371032307715E-01
 cg2d: Sum(rhs),rhsMax =  -1.65090163761761E-13  4.86495265611971E-01
 cg2d: Sum(rhs),rhsMax =   2.29941066187678E-13  4.86613622118005E-01
 cg2d: Sum(rhs),rhsMax =   2.83106871279415E-15  4.86726140715967E-01
 cg2d: Sum(rhs),rhsMax =   1.70308211977499E-13  4.86831420192300E-01
 cg2d: Sum(rhs),rhsMax =   1.66436309179119E-13  4.86930231174559E-01
 cg2d: Sum(rhs),rhsMax =  -1.05040975917348E-13  4.87021344158756E-01
 cg2d: Sum(rhs),rhsMax =   3.30568905582140E-14  4.87106407852659E-01
 cg2d: Sum(rhs),rhsMax =   1.01169073118967E-13  4.87186083311228E-01
 cg2d: Sum(rhs),rhsMax =  -1.66200386786386E-13  4.87261002001968E-01
 cg2d: Sum(rhs),rhsMax =   1.47229450853104E-13  4.87332061211304E-01
 cg2d: Sum(rhs),rhsMax =  -1.03278496865755E-13  4.87400213306173E-01
 cg2d: Sum(rhs),rhsMax =   2.37615482845399E-13  4.87466526325800E-01
 cg2d: Sum(rhs),rhsMax =  -9.81159598012482E-14  4.87532209678474E-01
 cg2d: Sum(rhs),rhsMax =  -1.81604731253060E-13  4.87598438574155E-01
 cg2d: Sum(rhs),rhsMax =  -1.77607928364409E-13  4.87666373726798E-01
 cg2d: Sum(rhs),rhsMax =   1.39874223314962E-13  4.87737228593020E-01
 cg2d: Sum(rhs),rhsMax =  -3.05741543193960E-13  4.87812068901157E-01
 cg2d: Sum(rhs),rhsMax =   2.36755060001315E-14  4.87891952808216E-01
 cg2d: Sum(rhs),rhsMax =   2.16493489801906E-14  4.87977740433772E-01
 cg2d: Sum(rhs),rhsMax =  -1.01862962509358E-14  4.88070578999622E-01
 cg2d: Sum(rhs),rhsMax =   1.08385522779031E-13  4.88170033039300E-01
 cg2d: Sum(rhs),rhsMax =  -1.70474745431193E-13  4.88277194335110E-01
 cg2d: Sum(rhs),rhsMax =  -1.02237662780169E-13  4.88392036845228E-01
 cg2d: Sum(rhs),rhsMax =   6.63635812969687E-14  4.88514544657585E-01
 cg2d: Sum(rhs),rhsMax =  -1.09537379167080E-13  4.88644456598352E-01
 cg2d: Sum(rhs),rhsMax =   1.50462975412324E-13  4.88781005874847E-01
 cg2d: Sum(rhs),rhsMax =  -2.28428387316626E-13  4.88923360562441E-01
 cg2d: Sum(rhs),rhsMax =   4.53803661315533E-14  4.89070514581044E-01
 cg2d: Sum(rhs),rhsMax =   7.66192664869436E-14  4.89221218413720E-01
 cg2d: Sum(rhs),rhsMax =  -3.30693805672411E-13  4.89374060926399E-01
 cg2d: Sum(rhs),rhsMax =   9.69363478375840E-14  4.89527433912907E-01
 cg2d: Sum(rhs),rhsMax =   5.98132654516803E-15  4.89679734619970E-01
 cg2d: Sum(rhs),rhsMax =  -8.11711808879068E-14  4.89829209012862E-01
 cg2d: Sum(rhs),rhsMax =   1.15740750317173E-14  4.89972998796679E-01
 cg2d: Sum(rhs),rhsMax =   2.88588597463502E-13  4.90106761205352E-01
 cg2d: Sum(rhs),rhsMax =  -8.98725538434064E-14  4.90232996063610E-01
 cg2d: Sum(rhs),rhsMax =   6.43374242770278E-14  4.90349427756706E-01
 cg2d: Sum(rhs),rhsMax =  -3.90243393155743E-14  4.90454618883428E-01
 cg2d: Sum(rhs),rhsMax =   8.39606162372775E-14  4.90549405967674E-01
 cg2d: Sum(rhs),rhsMax =   2.42306175124440E-14  4.90632639451075E-01
 cg2d: Sum(rhs),rhsMax =  -4.46448433777391E-14  4.90699467369105E-01
 cg2d: Sum(rhs),rhsMax =   1.57984736404160E-13  4.90751759134531E-01
 cg2d: Sum(rhs),rhsMax =  -1.61454183356113E-13  4.90788634212984E-01
 cg2d: Sum(rhs),rhsMax =   1.06720188242093E-13  4.90810192920738E-01
 cg2d: Sum(rhs),rhsMax =  -6.14785999886180E-15  4.90816929123419E-01
 cg2d: Sum(rhs),rhsMax =   1.84574577843932E-13  4.90809279893910E-01
 cg2d: Sum(rhs),rhsMax =  -1.37639899477904E-13  4.90788117331099E-01
 cg2d: Sum(rhs),rhsMax =  -1.20500831535253E-13  4.90754660821277E-01
 cg2d: Sum(rhs),rhsMax =   6.91530166463394E-14  4.90710326807637E-01
 cg2d: Sum(rhs),rhsMax =  -1.39444011892920E-13  4.90656855674067E-01
 cg2d: Sum(rhs),rhsMax =   2.19574358695240E-13  4.90596123470034E-01
 cg2d: Sum(rhs),rhsMax =   2.11636264069170E-13  4.90530204048692E-01
 cg2d: Sum(rhs),rhsMax =   1.68851044257678E-13  4.90461295436254E-01
 cg2d: Sum(rhs),rhsMax =  -9.00668428727158E-14  4.90391700824480E-01
 cg2d: Sum(rhs),rhsMax =   9.39387456710961E-14  4.90323720695894E-01
 cg2d: Sum(rhs),rhsMax =   2.27179386413923E-14  4.90260429559655E-01
 cg2d: Sum(rhs),rhsMax =  -2.48301379457416E-13  4.90204338225058E-01
 cg2d: Sum(rhs),rhsMax =  -8.78463968234655E-14  4.90156178948673E-01
 cg2d: Sum(rhs),rhsMax =   1.03264619077947E-13  4.90118679886075E-01
 cg2d: Sum(rhs),rhsMax =   4.07174294281276E-14  4.90093688013800E-01
 cg2d: Sum(rhs),rhsMax =   8.80684414283905E-14  4.90082845532718E-01
 cg2d: Sum(rhs),rhsMax =  -1.05707109732123E-13  4.90087515799691E-01
 cg2d: Sum(rhs),rhsMax =   3.96349619791181E-14  4.90108693390559E-01
 cg2d: Sum(rhs),rhsMax =  -1.95357618970604E-13  4.90147093027013E-01
 cg2d: Sum(rhs),rhsMax =   9.22595333463505E-14  4.90203007969781E-01
 cg2d: Sum(rhs),rhsMax =   1.05443431763774E-13  4.90276437032721E-01
 cg2d: Sum(rhs),rhsMax =   5.74540415243519E-14  4.90366933886388E-01
 cg2d: Sum(rhs),rhsMax =   1.88030147008078E-13  4.90473762136703E-01
 cg2d: Sum(rhs),rhsMax =   1.73194791841524E-13  4.90595903707223E-01
 cg2d: Sum(rhs),rhsMax =   5.78148640073550E-14  4.90731989062898E-01
 cg2d: Sum(rhs),rhsMax =   6.62386812066984E-14  4.90880289294186E-01
 cg2d: Sum(rhs),rhsMax =   2.29330443524134E-13  4.91038923597790E-01
 cg2d: Sum(rhs),rhsMax =  -1.50032763990282E-13  4.91205762807741E-01
 cg2d: Sum(rhs),rhsMax =  -6.36990460378684E-14  4.91378538907675E-01
 cg2d: Sum(rhs),rhsMax =  -1.00655594970078E-13  4.91554834185605E-01
 cg2d: Sum(rhs),rhsMax =  -2.82135426132868E-14  4.91732273788614E-01
 cg2d: Sum(rhs),rhsMax =  -1.98327465561476E-13  4.91908492833519E-01
 cg2d: Sum(rhs),rhsMax =   8.87345752431656E-14  4.92081105260563E-01
 cg2d: Sum(rhs),rhsMax =   1.51031964712445E-13  4.92249926327763E-01
 cg2d: Sum(rhs),rhsMax =  -1.43413059205955E-13  4.92409742049202E-01
 cg2d: Sum(rhs),rhsMax =  -1.03625441560951E-13  4.92559758070667E-01
 cg2d: Sum(rhs),rhsMax =  -4.31182867188795E-14  4.92698235762307E-01
 cg2d: Sum(rhs),rhsMax =   1.07483466571523E-13  4.92823675348206E-01
 cg2d: Sum(rhs),rhsMax =   3.16552339896248E-14  4.92934962233165E-01
 cg2d: Sum(rhs),rhsMax =  -2.84383627757734E-13  4.93031290411329E-01
 cg2d: Sum(rhs),rhsMax =  -2.24265050974282E-14  4.93112057121102E-01
 cg2d: Sum(rhs),rhsMax =  -2.36283215215849E-13  4.93176986937442E-01
 cg2d: Sum(rhs),rhsMax =   3.17426640528140E-13  4.93225846979009E-01
 cg2d: Sum(rhs),rhsMax =   1.93733917797090E-13  4.93259175178957E-01
 cg2d: Sum(rhs),rhsMax =   7.72715225139109E-14  4.93277555095041E-01
 cg2d: Sum(rhs),rhsMax =   7.00828284294630E-15  4.93281841986426E-01
 cg2d: Sum(rhs),rhsMax =   1.35141897672497E-13  4.93273154013077E-01
 cg2d: Sum(rhs),rhsMax =  -5.03902475301743E-14  4.93252839381028E-01
 cg2d: Sum(rhs),rhsMax =   6.64746035994312E-14  4.93222389248362E-01
 cg2d: Sum(rhs),rhsMax =  -2.28983498828939E-15  4.93183524628248E-01
 cg2d: Sum(rhs),rhsMax =   2.09277040141842E-13  4.93138028752368E-01
 cg2d: Sum(rhs),rhsMax =  -1.70197189675036E-13  4.93087700945900E-01
 cg2d: Sum(rhs),rhsMax =  -4.82530682077709E-14  4.93034442591609E-01
 cg2d: Sum(rhs),rhsMax =  -1.86489712561411E-13  4.92980057646492E-01
 cg2d: Sum(rhs),rhsMax =   1.00072727882150E-13  4.92927130057927E-01
 cg2d: Sum(rhs),rhsMax =   2.22946661132539E-13  4.92877208435687E-01
 cg2d: Sum(rhs),rhsMax =   1.24941723633754E-13  4.92831010758412E-01
 cg2d: Sum(rhs),rhsMax =  -5.54833956556422E-14  4.92790480644051E-01
 cg2d: Sum(rhs),rhsMax =   3.00454106039183E-14  4.92756972477354E-01
 cg2d: Sum(rhs),rhsMax =   6.93195501000332E-14  4.92731171506260E-01
 cg2d: Sum(rhs),rhsMax =   2.51701437470331E-13  4.92714443172676E-01
 cg2d: Sum(rhs),rhsMax =  -2.39822051106842E-13  4.92707320709010E-01
 cg2d: Sum(rhs),rhsMax =  -1.93733917797090E-13  4.92710166056146E-01
 cg2d: Sum(rhs),rhsMax =  -9.79494263475544E-14  4.92723104650827E-01
 cg2d: Sum(rhs),rhsMax =   1.76803016671556E-13  4.92745989201539E-01
 cg2d: Sum(rhs),rhsMax =  -2.32924790566358E-13  4.92778369330869E-01
 cg2d: Sum(rhs),rhsMax =   9.13574771388426E-14  4.92820068736877E-01
 cg2d: Sum(rhs),rhsMax =  -1.68004499201402E-13  4.92870368314923E-01
 cg2d: Sum(rhs),rhsMax =   1.08038578083836E-13  4.92928418259784E-01
 cg2d: Sum(rhs),rhsMax =   1.24483756636096E-14  4.92993249230767E-01
 cg2d: Sum(rhs),rhsMax =  -2.36671793274468E-13  4.93063901997832E-01
 cg2d: Sum(rhs),rhsMax =  -5.70099523145018E-14  4.93140051210929E-01
 cg2d: Sum(rhs),rhsMax =  -1.45342071711241E-13  4.93220144161555E-01
 cg2d: Sum(rhs),rhsMax =  -1.47729051214185E-13  4.93302524062230E-01
 cg2d: Sum(rhs),rhsMax =  -1.59469659699596E-13  4.93386491757842E-01
 cg2d: Sum(rhs),rhsMax =   1.70530256582424E-13  4.93471135165007E-01
 cg2d: Sum(rhs),rhsMax =   1.16934240068645E-13  4.93555160824101E-01
 cg2d: Sum(rhs),rhsMax =   5.10702591327572E-15  4.93638766351571E-01
 cg2d: Sum(rhs),rhsMax =  -8.04356581340926E-14  4.93720363883984E-01
 cg2d: Sum(rhs),rhsMax =   7.88674681118096E-14  4.93799527362663E-01
 cg2d: Sum(rhs),rhsMax =   5.19168041890339E-14  4.93875808363856E-01
 cg2d: Sum(rhs),rhsMax =  -1.31242239298501E-13  4.93948860840659E-01
 cg2d: Sum(rhs),rhsMax =  -2.40599207224079E-13  4.94018438179893E-01
 cg2d: Sum(rhs),rhsMax =   9.28146448586631E-14  4.94084404293794E-01
 cg2d: Sum(rhs),rhsMax =   9.74081926230497E-14  4.94146762768753E-01
 cg2d: Sum(rhs),rhsMax =  -1.41803235820248E-13  4.94205188980705E-01
 cg2d: Sum(rhs),rhsMax =  -1.75831571525009E-14  4.94260283503245E-01
 cg2d: Sum(rhs),rhsMax =   6.93056723122254E-14  4.94312123794985E-01
 cg2d: Sum(rhs),rhsMax =   8.50153281106714E-14  4.94360338237978E-01
 cg2d: Sum(rhs),rhsMax =  -5.20000709158808E-14  4.94404567577812E-01
 cg2d: Sum(rhs),rhsMax =   1.64909752520259E-13  4.94446896137273E-01
 cg2d: Sum(rhs),rhsMax =   8.32389712712711E-14  4.94487294028599E-01
 cg2d: Sum(rhs),rhsMax =  -5.25274268525777E-14  4.94526185275611E-01
 cg2d: Sum(rhs),rhsMax =  -5.84671200343223E-14  4.94564724247868E-01
 cg2d: Sum(rhs),rhsMax =  -2.30149233004795E-13  4.94601679952620E-01
 cg2d: Sum(rhs),rhsMax =  -1.60441104846143E-13  4.94637812347128E-01
 cg2d: Sum(rhs),rhsMax =   1.86253790168678E-13  4.94673210893389E-01
 cg2d: Sum(rhs),rhsMax =   1.57540647194310E-13  4.94707690766775E-01
 cg2d: Sum(rhs),rhsMax =   1.10148001830623E-13  4.94742923546697E-01
 cg2d: Sum(rhs),rhsMax =  -8.73745520379998E-14  4.94777245877337E-01
 cg2d: Sum(rhs),rhsMax =   1.59608437577674E-13  4.94810319049273E-01
 cg2d: Sum(rhs),rhsMax =  -5.81479309147426E-15  4.94841778084004E-01
 cg2d: Sum(rhs),rhsMax =  -5.65242297412283E-14  4.94871268714269E-01
 cg2d: Sum(rhs),rhsMax =  -2.72004641033163E-14  4.94897382444813E-01
 cg2d: Sum(rhs),rhsMax =  -7.66470220625592E-14  4.94919560218486E-01
 cg2d: Sum(rhs),rhsMax =   2.56322740810333E-14  4.94938498171488E-01
 cg2d: Sum(rhs),rhsMax =   1.46549439250521E-14  4.94953566609318E-01
 cg2d: Sum(rhs),rhsMax =   1.75776060373778E-13  4.94963950216407E-01
 cg2d: Sum(rhs),rhsMax =  -1.11244347067441E-13  4.94969797577767E-01
 cg2d: Sum(rhs),rhsMax =  -1.80133685745432E-14  4.94971040478933E-01
 cg2d: Sum(rhs),rhsMax =  -1.15948917134290E-13  4.94967672508548E-01
 cg2d: Sum(rhs),rhsMax =  -1.96509475358653E-13  4.94959852782035E-01
 cg2d: Sum(rhs),rhsMax =  -1.95399252334028E-13  4.94947703151985E-01
 cg2d: Sum(rhs),rhsMax =   8.22952817003397E-14  4.94931549654759E-01
 cg2d: Sum(rhs),rhsMax =  -6.10622663543836E-14  4.94911802509891E-01
 cg2d: Sum(rhs),rhsMax =   1.45869427647938E-13  4.94888949076318E-01
 cg2d: Sum(rhs),rhsMax =  -8.00887134388972E-14  4.94863571541000E-01
 cg2d: Sum(rhs),rhsMax =   4.37941349851201E-13  4.94836361950024E-01
 cg2d: Sum(rhs),rhsMax =   5.91471316369052E-14  4.94804946533896E-01
 cg2d: Sum(rhs),rhsMax =  -8.16013923099490E-15  4.94769017941073E-01
 cg2d: Sum(rhs),rhsMax =  -2.24875673637825E-13  4.94732890850986E-01
 cg2d: Sum(rhs),rhsMax =   4.23827639650654E-14  4.94697798811836E-01
 cg2d: Sum(rhs),rhsMax =  -6.02157212981069E-14  4.94664633787848E-01
 cg2d: Sum(rhs),rhsMax =  -1.39471767468535E-14  4.94634685459148E-01
 cg2d: Sum(rhs),rhsMax =  -1.85129689356245E-14  4.94609346822955E-01
 cg2d: Sum(rhs),rhsMax =   2.34035013590983E-13  4.94589707169939E-01
 cg2d: Sum(rhs),rhsMax =   6.81676937119846E-14  4.94576895005153E-01
 cg2d: Sum(rhs),rhsMax =  -6.03128658127616E-14  4.94571945233377E-01
 cg2d: Sum(rhs),rhsMax =   1.96995197931926E-13  4.94575795581415E-01
 cg2d: Sum(rhs),rhsMax =  -2.13773443391574E-13  4.94589235731893E-01
 cg2d: Sum(rhs),rhsMax =   2.78471690151605E-13  4.94612938947076E-01
 cg2d: Sum(rhs),rhsMax =  -1.62370117351429E-14  4.94647335459575E-01
 cg2d: Sum(rhs),rhsMax =   2.43749465056453E-13  4.94692713321758E-01
 cg2d: Sum(rhs),rhsMax =  -2.98788771502245E-14  4.94748683488736E-01
 cg2d: Sum(rhs),rhsMax =   1.06692432666478E-13  4.94815932095034E-01
 cg2d: Sum(rhs),rhsMax =   2.69423372500910E-13  4.94893720847985E-01
 cg2d: Sum(rhs),rhsMax =   6.78207490167893E-14  4.94981387037549E-01
 cg2d: Sum(rhs),rhsMax =  -2.12191375581483E-14  4.95078337704805E-01
 cg2d: Sum(rhs),rhsMax =   2.79914980083618E-14  4.95183485279428E-01
 cg2d: Sum(rhs),rhsMax =   4.91412466274710E-14  4.95295600300858E-01
 cg2d: Sum(rhs),rhsMax =   1.98188687683398E-13  4.95413318501304E-01
 cg2d: Sum(rhs),rhsMax =   2.32855401627319E-13  4.95535139418729E-01
 cg2d: Sum(rhs),rhsMax =  -7.37604421985338E-14  4.95659485474937E-01
 cg2d: Sum(rhs),rhsMax =  -4.52388126959136E-13  4.95784628551033E-01
 cg2d: Sum(rhs),rhsMax =  -2.00173211339916E-13  4.95908752384224E-01
 cg2d: Sum(rhs),rhsMax =  -1.96231919602496E-14  4.96030202376916E-01
 cg2d: Sum(rhs),rhsMax =   8.19483370051444E-14  4.96147192020642E-01
 cg2d: Sum(rhs),rhsMax =  -2.48259746093993E-13  4.96258035307482E-01
 cg2d: Sum(rhs),rhsMax =  -1.70877201277619E-13  4.96361676116674E-01
 cg2d: Sum(rhs),rhsMax =  -7.73547892407578E-14  4.96455285028476E-01
 cg2d: Sum(rhs),rhsMax =  -3.14470671725076E-14  4.96538739673296E-01
 cg2d: Sum(rhs),rhsMax =  -1.84935400326935E-13  4.96610321756172E-01
 cg2d: Sum(rhs),rhsMax =   1.11285980430864E-13  4.96669760933661E-01
 cg2d: Sum(rhs),rhsMax =   1.47243328640911E-13  4.96715658880049E-01
 cg2d: Sum(rhs),rhsMax =  -6.86117829218347E-14  4.96748234140684E-01
 cg2d: Sum(rhs),rhsMax =  -3.13082892944294E-14  4.96766703934560E-01
 cg2d: Sum(rhs),rhsMax =   1.26745836048769E-13  4.96771615419878E-01
 cg2d: Sum(rhs),rhsMax =  -4.74065231514942E-14  4.96762718415156E-01
 cg2d: Sum(rhs),rhsMax =   2.69895217286376E-13  4.96741060199448E-01
 cg2d: Sum(rhs),rhsMax =  -1.55958579384219E-13  4.96706835538368E-01
 cg2d: Sum(rhs),rhsMax =   4.12170297892089E-14  4.96660666401014E-01
 cg2d: Sum(rhs),rhsMax =  -1.62106439383081E-13  4.96605429453787E-01
 cg2d: Sum(rhs),rhsMax =   3.94281829407817E-13  4.96541066416685E-01
 cg2d: Sum(rhs),rhsMax =  -1.37403977085171E-13  4.96469093061582E-01
 cg2d: Sum(rhs),rhsMax =  -3.05311331771918E-14  4.96391554717777E-01
 cg2d: Sum(rhs),rhsMax =   1.19196319481318E-13  4.96310135274148E-01
 cg2d: Sum(rhs),rhsMax =   9.10382880192628E-14  4.96225635658023E-01
 cg2d: Sum(rhs),rhsMax =  -3.71369601737115E-14  4.96140365153732E-01
 cg2d: Sum(rhs),rhsMax =  -3.59851037856629E-14  4.96056125224698E-01
 cg2d: Sum(rhs),rhsMax =   1.40568112705353E-13  4.95974080138696E-01
 cg2d: Sum(rhs),rhsMax =   6.42264019745653E-14  4.95896187750332E-01
 cg2d: Sum(rhs),rhsMax =  -9.93233273405281E-14  4.95823084157807E-01
 cg2d: Sum(rhs),rhsMax =   1.31838984174237E-15  4.95756566625960E-01
 cg2d: Sum(rhs),rhsMax =  -1.17891807427384E-13  4.95697061773999E-01
 cg2d: Sum(rhs),rhsMax =   2.42500464153750E-13  4.95645972711124E-01
 cg2d: Sum(rhs),rhsMax =   1.78690395813419E-13  4.95603658234706E-01
 cg2d: Sum(rhs),rhsMax =   6.71823707776298E-14  4.95570847423729E-01
 cg2d: Sum(rhs),rhsMax =   1.17406084854110E-13  4.95548209532824E-01
 cg2d: Sum(rhs),rhsMax =  -8.33361157859258E-14  4.95535790075920E-01
 cg2d: Sum(rhs),rhsMax =   1.89265270122974E-13  4.95533280361311E-01
 cg2d: Sum(rhs),rhsMax =  -6.82648382266393E-14  4.95540873041733E-01
 cg2d: Sum(rhs),rhsMax =  -1.85684800868557E-13  4.95556173226123E-01
 cg2d: Sum(rhs),rhsMax =   2.38212227721135E-13  4.95579167828171E-01
 cg2d: Sum(rhs),rhsMax =  -2.87700419043802E-13  4.95609539149616E-01
 cg2d: Sum(rhs),rhsMax =  -3.41393580072236E-14  4.95646002915207E-01
 cg2d: Sum(rhs),rhsMax =  -9.96008830966844E-14  4.95687672146778E-01
 cg2d: Sum(rhs),rhsMax =   1.09634523681734E-15  4.95733819504898E-01
 cg2d: Sum(rhs),rhsMax =  -4.26741975090295E-14  4.95782953004131E-01
 cg2d: Sum(rhs),rhsMax =   2.11400341676438E-13  4.95834402523939E-01
 cg2d: Sum(rhs),rhsMax =   3.13318815337027E-13  4.95886680885143E-01
 cg2d: Sum(rhs),rhsMax =   1.67615921142783E-13  4.95939199084585E-01
 cg2d: Sum(rhs),rhsMax =  -6.75848266240564E-15  4.95990607936547E-01
 cg2d: Sum(rhs),rhsMax =   7.62861995795561E-14  4.96040490524282E-01
 cg2d: Sum(rhs),rhsMax =  -6.35463903719824E-14  4.96087708398692E-01
 cg2d: Sum(rhs),rhsMax =   5.41233724504764E-15  4.96132055224748E-01
 cg2d: Sum(rhs),rhsMax =   4.70595784562988E-14  4.96172663869891E-01
 cg2d: Sum(rhs),rhsMax =  -2.38697950294409E-14  4.96209545140490E-01
 cg2d: Sum(rhs),rhsMax =  -1.44190215323192E-14  4.96242086255354E-01
 cg2d: Sum(rhs),rhsMax =   2.65343302885412E-13  4.96270734774599E-01
 cg2d: Sum(rhs),rhsMax =   3.70675712346724E-14  4.96295161772499E-01
 cg2d: Sum(rhs),rhsMax =   3.01980662698043E-14  4.96315962167455E-01
 cg2d: Sum(rhs),rhsMax =  -1.17822418488345E-13  4.96333091959988E-01
 cg2d: Sum(rhs),rhsMax =   5.51364509604468E-14  4.96347357913054E-01
 cg2d: Sum(rhs),rhsMax =  -2.17617590614338E-13  4.96358895339595E-01
 cg2d: Sum(rhs),rhsMax =  -2.09596229261422E-13  4.96368809672473E-01
 cg2d: Sum(rhs),rhsMax =   3.17523785042795E-14  4.96377029051623E-01
 cg2d: Sum(rhs),rhsMax =  -3.19189119579733E-15  4.96383731778846E-01
 cg2d: Sum(rhs),rhsMax =   9.93094495527203E-14  4.96388851293256E-01
 cg2d: Sum(rhs),rhsMax =  -8.15458811587177E-14  4.96393109103056E-01
 cg2d: Sum(rhs),rhsMax =   5.65936186802674E-14  4.96397226703590E-01
 cg2d: Sum(rhs),rhsMax =  -2.27318164292001E-13  4.96402100828328E-01
 cg2d: Sum(rhs),rhsMax =   1.30950805754537E-13  4.96407933049433E-01
 cg2d: Sum(rhs),rhsMax =   6.51145803942654E-14  4.96415762096895E-01
 cg2d: Sum(rhs),rhsMax =   1.29160571127329E-13  4.96425226301595E-01
 cg2d: Sum(rhs),rhsMax =  -1.13339893026421E-13  4.96437322762342E-01
 cg2d: Sum(rhs),rhsMax =  -1.32949207198862E-13  4.96451981347932E-01
 cg2d: Sum(rhs),rhsMax =  -3.02063929424889E-13  4.96469334787269E-01
 cg2d: Sum(rhs),rhsMax =  -1.46743728279830E-13  4.96489688082017E-01
 cg2d: Sum(rhs),rhsMax =   9.05941988094128E-14  4.96512796011147E-01
 cg2d: Sum(rhs),rhsMax =  -2.64233079860787E-14  4.96538270026985E-01
 cg2d: Sum(rhs),rhsMax =   1.32588384715859E-13  4.96566116837791E-01
 cg2d: Sum(rhs),rhsMax =   9.00113317214846E-14  4.96595642315906E-01
 cg2d: Sum(rhs),rhsMax =  -1.80827575135822E-14  4.96626331012116E-01
 cg2d: Sum(rhs),rhsMax =   1.05040975917348E-13  4.96657982392750E-01
 cg2d: Sum(rhs),rhsMax =   1.52045043222415E-13  4.96690070955471E-01
 cg2d: Sum(rhs),rhsMax =   4.50750547997814E-14  4.96721753488319E-01
 cg2d: Sum(rhs),rhsMax =   1.13242748511766E-13  4.96752746923678E-01
 cg2d: Sum(rhs),rhsMax =   1.81799020282369E-15  4.96782802773922E-01
 cg2d: Sum(rhs),rhsMax =   2.58695842525469E-13  4.96810059771045E-01
 cg2d: Sum(rhs),rhsMax =  -1.21083698623181E-13  4.96835008448370E-01
 cg2d: Sum(rhs),rhsMax =  -1.08621445171764E-13  4.96857211671451E-01
 cg2d: Sum(rhs),rhsMax =   1.31228361510694E-13  4.96875893529168E-01
 cg2d: Sum(rhs),rhsMax =   8.31418267566164E-14  4.96891043110654E-01
 cg2d: Sum(rhs),rhsMax =  -1.02223784992361E-13  4.96902350706431E-01
 cg2d: Sum(rhs),rhsMax =  -1.42982847783912E-13  4.96909815955581E-01
 cg2d: Sum(rhs),rhsMax =   5.84116088830910E-14  4.96913180342235E-01
 cg2d: Sum(rhs),rhsMax =  -1.48672740785116E-13  4.96912443533938E-01
 cg2d: Sum(rhs),rhsMax =   3.43197692487252E-14  4.96907262751849E-01
 cg2d: Sum(rhs),rhsMax =   2.30274133095065E-13  4.96897419392840E-01
 cg2d: Sum(rhs),rhsMax =   4.89330798103538E-14  4.96885540904972E-01
 cg2d: Sum(rhs),rhsMax =   1.33892896769794E-13  4.96871518036213E-01
 cg2d: Sum(rhs),rhsMax =  -1.47659662275146E-13  4.96855095171288E-01
 cg2d: Sum(rhs),rhsMax =  -1.21042065259758E-13  4.96837073721460E-01
 cg2d: Sum(rhs),rhsMax =   1.47049039611602E-13  4.96817782373965E-01
 cg2d: Sum(rhs),rhsMax =  -1.18488552303120E-13  4.96798032572442E-01
 cg2d: Sum(rhs),rhsMax =  -1.66061608908308E-13  4.96778174550370E-01
 cg2d: Sum(rhs),rhsMax =   8.37802049957759E-14  4.96758978004729E-01
 cg2d: Sum(rhs),rhsMax =  -3.74977826567147E-14  4.96740776232623E-01
 cg2d: Sum(rhs),rhsMax =  -5.82728310050129E-14  4.96724271303817E-01
 cg2d: Sum(rhs),rhsMax =   6.36296570988293E-14  4.96709652419467E-01
 cg2d: Sum(rhs),rhsMax =   7.19979631469414E-14  4.96697438687713E-01
 cg2d: Sum(rhs),rhsMax =   1.25691124175376E-13  4.96687668473120E-01
 cg2d: Sum(rhs),rhsMax =  -8.69720961915732E-14  4.96680760241179E-01
 cg2d: Sum(rhs),rhsMax =   9.05248098703737E-14  4.96676613486058E-01
 cg2d: Sum(rhs),rhsMax =  -5.77871084317394E-14  4.96675454338088E-01
 cg2d: Sum(rhs),rhsMax =  -3.36952687973735E-14  4.96677001766914E-01
 cg2d: Sum(rhs),rhsMax =   6.41015018842950E-14  4.96681341326132E-01
 cg2d: Sum(rhs),rhsMax =   5.32351940307763E-14  4.96688060703781E-01
 cg2d: Sum(rhs),rhsMax =  -1.15019105351166E-13  4.96697120756709E-01
 cg2d: Sum(rhs),rhsMax =   1.80411241501588E-16  4.96707984548465E-01
 cg2d: Sum(rhs),rhsMax =   1.21722076862341E-13  4.96720469144861E-01
 cg2d: Sum(rhs),rhsMax =  -1.37251321419285E-14  4.96733982128724E-01
 cg2d: Sum(rhs),rhsMax =  -2.06265560187546E-13  4.96748292957877E-01
 cg2d: Sum(rhs),rhsMax =  -1.07275299754406E-14  4.96762658718282E-01
 cg2d: Sum(rhs),rhsMax =   4.51028103753970E-15  4.96776922471850E-01
 cg2d: Sum(rhs),rhsMax =  -1.59372515184941E-13  4.96790484719273E-01
 cg2d: Sum(rhs),rhsMax =   5.15421039182229E-14  4.96803211537048E-01
 cg2d: Sum(rhs),rhsMax =  -1.44925738077006E-13  4.96814627889888E-01
 cg2d: Sum(rhs),rhsMax =  -2.74863465321573E-13  4.96824714644007E-01
 cg2d: Sum(rhs),rhsMax =   5.66491298314986E-14  4.96833157067088E-01
 cg2d: Sum(rhs),rhsMax =   4.94049245958195E-15  4.96840084579159E-01
 cg2d: Sum(rhs),rhsMax =   1.40318312524812E-13  4.96845398241312E-01
 cg2d: Sum(rhs),rhsMax =  -7.82152120848423E-14  4.96849225636593E-01
 cg2d: Sum(rhs),rhsMax =  -1.01862962509358E-13  4.96851481236649E-01
 cg2d: Sum(rhs),rhsMax =  -3.87190279838023E-14  4.96853149929158E-01
 cg2d: Sum(rhs),rhsMax =   1.45508605164935E-13  4.96854267351181E-01
 cg2d: Sum(rhs),rhsMax =  -7.04991620636974E-15  4.96855469635108E-01
 cg2d: Sum(rhs),rhsMax =  -2.23293605827735E-13  4.96854120639597E-01
 cg2d: Sum(rhs),rhsMax =   1.50726653380673E-13  4.96847796168919E-01
 cg2d: Sum(rhs),rhsMax =   1.08857367564497E-13  4.96844925627057E-01
 cg2d: Sum(rhs),rhsMax =   3.12944115066216E-14  4.96846800246645E-01
 cg2d: Sum(rhs),rhsMax =   2.48565057425765E-13  4.96853908825667E-01
 cg2d: Sum(rhs),rhsMax =   2.14550599508812E-14  4.96867087262904E-01
 cg2d: Sum(rhs),rhsMax =  -3.39311911901063E-14  4.96884528104931E-01
 cg2d: Sum(rhs),rhsMax =  -9.43689570931383E-14  4.96906490629094E-01
 cg2d: Sum(rhs),rhsMax =   6.27276008913213E-14  4.96933163102781E-01
 cg2d: Sum(rhs),rhsMax =   1.13797860024079E-14  4.96965027024168E-01
 cg2d: Sum(rhs),rhsMax =  -6.87644385877206E-14  4.97001997230387E-01
 cg2d: Sum(rhs),rhsMax =   4.88636908713147E-14  4.97044226396905E-01
 cg2d: Sum(rhs),rhsMax =  -1.32074906566970E-13  4.97091351748487E-01
 cg2d: Sum(rhs),rhsMax =  -1.18571819029967E-13  4.97143269323530E-01
 cg2d: Sum(rhs),rhsMax =  -5.14727149791838E-14  4.97199278880576E-01
 cg2d: Sum(rhs),rhsMax =  -2.24889551425633E-13  4.97258900577500E-01
 cg2d: Sum(rhs),rhsMax =   1.50629508866018E-13  4.97321935394709E-01
 cg2d: Sum(rhs),rhsMax =  -2.07334149848748E-14  4.97387138535017E-01
 cg2d: Sum(rhs),rhsMax =   2.00853222942499E-13  4.97453698108146E-01
 cg2d: Sum(rhs),rhsMax =  -2.53824739004926E-14  4.97520819120686E-01
 cg2d: Sum(rhs),rhsMax =   7.87009346581158E-14  4.97587373905410E-01
 cg2d: Sum(rhs),rhsMax =  -7.14150960590132E-14  4.97652478057217E-01
 cg2d: Sum(rhs),rhsMax =   3.89549503765352E-14  4.97714932034678E-01
 cg2d: Sum(rhs),rhsMax =   8.24340595784179E-14  4.97773898221037E-01
 cg2d: Sum(rhs),rhsMax =   1.94289029309402E-14  4.97828132526838E-01
 cg2d: Sum(rhs),rhsMax =  -2.47149523069368E-13  4.97876842513060E-01
 cg2d: Sum(rhs),rhsMax =   3.38590266935057E-13  4.97918819130990E-01
 cg2d: Sum(rhs),rhsMax =  -1.50712775592865E-13  4.97953559280790E-01
 cg2d: Sum(rhs),rhsMax =   5.51086953848312E-14  4.97980400317586E-01
 cg2d: Sum(rhs),rhsMax =  -7.01244617928864E-14  4.97998891720308E-01
 cg2d: Sum(rhs),rhsMax =   6.82787160144471E-15  4.98008572775596E-01
 cg2d: Sum(rhs),rhsMax =  -1.51531565073526E-13  4.98009351740719E-01
 cg2d: Sum(rhs),rhsMax =  -1.66824887237738E-13  4.98000964453524E-01
 cg2d: Sum(rhs),rhsMax =   5.17919040987636E-14  4.97983854918558E-01
 cg2d: Sum(rhs),rhsMax =  -8.91786644530157E-14  4.97958252879574E-01
 cg2d: Sum(rhs),rhsMax =  -1.13034581694649E-13  4.97924779838889E-01
 cg2d: Sum(rhs),rhsMax =  -2.85993451143440E-13  4.97884032176391E-01
 cg2d: Sum(rhs),rhsMax =   1.80883086287054E-13  4.97837006844836E-01
 cg2d: Sum(rhs),rhsMax =   8.88317197578203E-14  4.97784520726780E-01
 cg2d: Sum(rhs),rhsMax =   1.46105350040671E-13  4.97727794403515E-01
 cg2d: Sum(rhs),rhsMax =   1.28244637132013E-13  4.97667905172915E-01
 cg2d: Sum(rhs),rhsMax =   3.23352455922077E-14  4.97606242110127E-01
 cg2d: Sum(rhs),rhsMax =   1.10314535284317E-13  4.97544027467897E-01
 cg2d: Sum(rhs),rhsMax =   2.68479682929978E-13  4.97482701523995E-01
 cg2d: Sum(rhs),rhsMax =   7.07212066686225E-14  4.97423453008575E-01
 cg2d: Sum(rhs),rhsMax =   1.20403687020598E-13  4.97367652159346E-01
 cg2d: Sum(rhs),rhsMax =   4.19109191795997E-14  4.97316341091162E-01
 cg2d: Sum(rhs),rhsMax =  -2.54241072639161E-14  4.97270691148195E-01
 cg2d: Sum(rhs),rhsMax =  -3.93574062229618E-14  4.97231547293185E-01
 cg2d: Sum(rhs),rhsMax =  -2.43000064514831E-14  4.97199821968889E-01
 cg2d: Sum(rhs),rhsMax =  -3.15886206081473E-13  4.97174598384912E-01
 cg2d: Sum(rhs),rhsMax =   1.87891369130000E-13  4.97152194941578E-01
 cg2d: Sum(rhs),rhsMax =   1.21042065259758E-13  4.97138408472840E-01
 cg2d: Sum(rhs),rhsMax =   1.05415676188159E-13  4.97133500534708E-01
 cg2d: Sum(rhs),rhsMax =  -2.91433543964104E-15  4.97137214758837E-01
 cg2d: Sum(rhs),rhsMax =   2.99205105136480E-14  4.97149292502387E-01
 cg2d: Sum(rhs),rhsMax =  -1.46729850492022E-13  4.97169140557039E-01
 cg2d: Sum(rhs),rhsMax =   1.10786380069783E-13  4.97196189750198E-01
 cg2d: Sum(rhs),rhsMax =   1.17558740519996E-13  4.97229516398615E-01
 cg2d: Sum(rhs),rhsMax =  -2.16437978650674E-13  4.97268237526495E-01
 cg2d: Sum(rhs),rhsMax =   8.03801469828613E-14  4.97311212427972E-01
 cg2d: Sum(rhs),rhsMax =  -1.19793064357054E-13  4.97357434672105E-01
 cg2d: Sum(rhs),rhsMax =  -8.48349168691698E-14  4.97405523934519E-01
 cg2d: Sum(rhs),rhsMax =  -7.72298891504875E-14  4.97454333550451E-01
 cg2d: Sum(rhs),rhsMax =   1.17558740519996E-13  4.97502537885348E-01
 cg2d: Sum(rhs),rhsMax =   4.70457006684910E-15  4.97549003880636E-01
 cg2d: Sum(rhs),rhsMax =   3.76948472435856E-13  4.97592549021545E-01
 cg2d: Sum(rhs),rhsMax =   1.87516668859189E-13  4.97632184219868E-01
 cg2d: Sum(rhs),rhsMax =   1.78274062179185E-13  4.97666674672315E-01
 cg2d: Sum(rhs),rhsMax =   5.52613510507172E-14  4.97695222834011E-01
 cg2d: Sum(rhs),rhsMax =  -1.01585406753202E-14  4.97717175815324E-01
 cg2d: Sum(rhs),rhsMax =  -3.57630591807379E-14  4.97732316519674E-01
 cg2d: Sum(rhs),rhsMax =   1.02556851899749E-13  4.97739998602207E-01
 cg2d: Sum(rhs),rhsMax =   6.84174938925253E-15  4.97740372168998E-01
 cg2d: Sum(rhs),rhsMax =  -9.71028812912778E-14  4.97733226045024E-01
 cg2d: Sum(rhs),rhsMax =   3.89133170131117E-14  4.97719146993677E-01
 cg2d: Sum(rhs),rhsMax =  -1.95676808090184E-15  4.97698336533629E-01
 cg2d: Sum(rhs),rhsMax =  -2.66883737332080E-13  4.97671755083908E-01
 cg2d: Sum(rhs),rhsMax =  -8.55288062595605E-14  4.97639968726506E-01
 cg2d: Sum(rhs),rhsMax =  -7.50788320402762E-14  4.97604257878997E-01
 cg2d: Sum(rhs),rhsMax =  -1.40013001193040E-13  4.97565492496416E-01
 cg2d: Sum(rhs),rhsMax =  -2.84924861482239E-13  4.97525183694769E-01
 cg2d: Sum(rhs),rhsMax =   2.43388642573450E-13  4.97484401011321E-01
 cg2d: Sum(rhs),rhsMax =  -1.49075196631543E-13  4.97444766265151E-01
 cg2d: Sum(rhs),rhsMax =   1.72681313692635E-13  4.97407366189164E-01
 cg2d: Sum(rhs),rhsMax =   6.44206910038747E-14  4.97373781440805E-01
 cg2d: Sum(rhs),rhsMax =  -3.91769949814602E-14  4.97345052352045E-01
 cg2d: Sum(rhs),rhsMax =  -3.84969833788773E-14  4.97322633413947E-01
 cg2d: Sum(rhs),rhsMax =   9.52571355128384E-14  4.97307315223758E-01
 cg2d: Sum(rhs),rhsMax =   3.79821174512074E-13  4.97300322372125E-01
 cg2d: Sum(rhs),rhsMax =   1.90084059603635E-13  4.97302233942899E-01
 cg2d: Sum(rhs),rhsMax =  -4.38815650483093E-14  4.97314006622056E-01
 cg2d: Sum(rhs),rhsMax =  -9.87265824647920E-14  4.97335861847841E-01
 cg2d: Sum(rhs),rhsMax =  -2.96568325452995E-14  4.97368299830156E-01
 cg2d: Sum(rhs),rhsMax =   2.64913091463370E-13  4.97411135515569E-01
 cg2d: Sum(rhs),rhsMax =  -5.18057818865714E-14  4.97464461450979E-01
 cg2d: Sum(rhs),rhsMax =  -1.35391697853038E-13  4.97527699286140E-01
 cg2d: Sum(rhs),rhsMax =   3.67622599029005E-14  4.97600526296554E-01
 cg2d: Sum(rhs),rhsMax =   1.97480920505200E-14  4.97681980523327E-01
 cg2d: Sum(rhs),rhsMax =  -7.50371986768528E-14  4.97771390744229E-01
 cg2d: Sum(rhs),rhsMax =  -2.22960538920347E-13  4.97867340890605E-01
 cg2d: Sum(rhs),rhsMax =  -5.97993876638725E-14  4.97969056909699E-01
 cg2d: Sum(rhs),rhsMax =   5.72042413438112E-14  4.98074969102064E-01
 cg2d: Sum(rhs),rhsMax =   5.70515856779252E-14  4.98183902305117E-01
 cg2d: Sum(rhs),rhsMax =   8.48487946569776E-14  4.98294153878188E-01
 cg2d: Sum(rhs),rhsMax =   1.06387121334706E-13  4.98404590144829E-01
 cg2d: Sum(rhs),rhsMax =   1.62828084349087E-13  4.98513523829764E-01
 cg2d: Sum(rhs),rhsMax =   1.30270794151954E-13  4.98619746169717E-01
 cg2d: Sum(rhs),rhsMax =  -1.17031384583299E-13  4.98721724503994E-01
 cg2d: Sum(rhs),rhsMax =  -6.34770014329433E-14  4.98818292725700E-01
 cg2d: Sum(rhs),rhsMax =   4.11198852745542E-14  4.98906984122138E-01
 cg2d: Sum(rhs),rhsMax =   3.23907567434389E-14  4.98988244445556E-01
 cg2d: Sum(rhs),rhsMax =  -6.89726054048379E-15  4.99061095770712E-01
 cg2d: Sum(rhs),rhsMax =  -2.16104911743287E-13  4.99125061302040E-01
 cg2d: Sum(rhs),rhsMax =   1.72362124573056E-14  4.99179465208047E-01
 cg2d: Sum(rhs),rhsMax =  -2.16132667318902E-13  4.99224188218432E-01
 cg2d: Sum(rhs),rhsMax =   2.73392419813945E-14  4.99258828350547E-01
 cg2d: Sum(rhs),rhsMax =   9.94898607942218E-14  4.99283735736200E-01
 cg2d: Sum(rhs),rhsMax =   1.72098446604707E-13  4.99299460973885E-01
 cg2d: Sum(rhs),rhsMax =  -7.10681513638178E-14  4.99306046184202E-01
 cg2d: Sum(rhs),rhsMax =   1.93664528858051E-13  4.99303845405417E-01
 cg2d: Sum(rhs),rhsMax =  -1.53085877308001E-13  4.99293660048962E-01
 cg2d: Sum(rhs),rhsMax =   1.67407754325666E-13  4.99276101983224E-01
 cg2d: Sum(rhs),rhsMax =   9.46465128492946E-14  4.99252236448683E-01
 cg2d: Sum(rhs),rhsMax =   1.15504827924440E-13  4.99222891874919E-01
 cg2d: Sum(rhs),rhsMax =  -9.02333763264096E-14  4.99189264425047E-01
 cg2d: Sum(rhs),rhsMax =  -2.69118061169138E-13  4.99152215861377E-01
 cg2d: Sum(rhs),rhsMax =  -1.20792265079217E-13  4.99112998740286E-01
 cg2d: Sum(rhs),rhsMax =   3.36813910095657E-14  4.99073853524377E-01
 cg2d: Sum(rhs),rhsMax =  -5.81201753391269E-14  4.99034598673831E-01
 cg2d: Sum(rhs),rhsMax =  -4.91690022030866E-14  4.98995971876274E-01
 cg2d: Sum(rhs),rhsMax =  -1.31547550630273E-13  4.98958962761380E-01
 cg2d: Sum(rhs),rhsMax =   7.84650122653829E-14  4.98924114559723E-01
 cg2d: Sum(rhs),rhsMax =   2.00894856305922E-13  4.98892218607476E-01
 cg2d: Sum(rhs),rhsMax =  -1.55653268052447E-13  4.98863666159268E-01
 cg2d: Sum(rhs),rhsMax =  -1.72362124573056E-14  4.98839036827230E-01
 cg2d: Sum(rhs),rhsMax =   9.71306368668934E-14  4.98818480370594E-01
 cg2d: Sum(rhs),rhsMax =  -2.89643309336896E-13  4.98802333138997E-01
 cg2d: Sum(rhs),rhsMax =   7.49400541621981E-15  4.98790514485962E-01
 cg2d: Sum(rhs),rhsMax =   7.83678677507282E-14  4.98783140797566E-01
 cg2d: Sum(rhs),rhsMax =  -1.63910551798097E-13  4.98779908180163E-01
 cg2d: Sum(rhs),rhsMax =  -1.00960906301850E-13  4.98780697883322E-01
 cg2d: Sum(rhs),rhsMax =   3.60683705125098E-14  4.98785049700532E-01
 cg2d: Sum(rhs),rhsMax =  -6.98885394001536E-14  4.98792728626161E-01
 cg2d: Sum(rhs),rhsMax =   1.56513690896531E-13  4.98803198032719E-01
 cg2d: Sum(rhs),rhsMax =   7.71049890602171E-14  4.98816034903876E-01
 cg2d: Sum(rhs),rhsMax =   5.80785419757035E-14  4.98830564172919E-01
 cg2d: Sum(rhs),rhsMax =   5.61217738948017E-14  4.98846400212475E-01
 cg2d: Sum(rhs),rhsMax =   1.53654866608122E-13  4.98862893087079E-01
 cg2d: Sum(rhs),rhsMax =  -8.85264084260484E-14  4.98879680639464E-01
 cg2d: Sum(rhs),rhsMax =  -1.33476563135559E-13  4.98896164196944E-01
 cg2d: Sum(rhs),rhsMax =  -7.07905956076615E-14  4.98912050739961E-01
 cg2d: Sum(rhs),rhsMax =  -2.17881268582687E-15  4.98926842971931E-01
 cg2d: Sum(rhs),rhsMax =  -8.16013923099490E-15  4.98940367517663E-01
 cg2d: Sum(rhs),rhsMax =  -8.35442826030430E-15  4.98952251511816E-01
 cg2d: Sum(rhs),rhsMax =   4.53803661315533E-14  4.98962467454223E-01
 cg2d: Sum(rhs),rhsMax =   7.74380559676047E-15  4.98970864732007E-01
 cg2d: Sum(rhs),rhsMax =  -1.37861944082829E-13  4.98977458260746E-01
 cg2d: Sum(rhs),rhsMax =   2.15105711021124E-15  4.98982247321851E-01
 cg2d: Sum(rhs),rhsMax =  -2.60291788123368E-13  4.98985477613616E-01
 cg2d: Sum(rhs),rhsMax =  -1.38014599748715E-13  4.98987205887392E-01
 cg2d: Sum(rhs),rhsMax =   1.50740531168481E-13  4.98987797841626E-01
 cg2d: Sum(rhs),rhsMax =   8.57092175010621E-14  4.98987428386714E-01
 cg2d: Sum(rhs),rhsMax =   1.11938236457831E-13  4.98986529985948E-01
 cg2d: Sum(rhs),rhsMax =  -2.71019318098809E-13  4.98985334510751E-01
 cg2d: Sum(rhs),rhsMax =   2.60499954940485E-13  4.98984332372674E-01
 cg2d: Sum(rhs),rhsMax =   1.09967590589122E-13  4.98983634762542E-01
 cg2d: Sum(rhs),rhsMax =  -7.62306884283248E-14  4.98983834884318E-01
 cg2d: Sum(rhs),rhsMax =   9.15933995315754E-14  4.98985180679457E-01
 cg2d: Sum(rhs),rhsMax =   1.31519795054658E-13  4.98988104936363E-01
 cg2d: Sum(rhs),rhsMax =   7.24698079324071E-14  4.98992814610011E-01
 cg2d: Sum(rhs),rhsMax =   5.52474732629094E-14  4.98999682402325E-01
 cg2d: Sum(rhs),rhsMax =   1.63480340376054E-14  4.99008850708879E-01
 cg2d: Sum(rhs),rhsMax =  -2.23626672735122E-13  4.99020610313077E-01
 cg2d: Sum(rhs),rhsMax =   8.18650702782975E-14  4.99034997111781E-01
 cg2d: Sum(rhs),rhsMax =   3.29222760164782E-13  4.99052214217583E-01
 cg2d: Sum(rhs),rhsMax =  -1.41012201915203E-13  4.99072214546543E-01
 cg2d: Sum(rhs),rhsMax =  -9.35640454002851E-14  4.99095098950758E-01
 cg2d: Sum(rhs),rhsMax =  -6.07847105982273E-15  4.99120739025598E-01
 cg2d: Sum(rhs),rhsMax =  -2.11622386281363E-13  4.99672723683916E-01
 cg2d: Sum(rhs),rhsMax =   6.20198337131228E-14  5.00269219444437E-01
 cg2d: Sum(rhs),rhsMax =   4.09949851842839E-14  5.00885962045342E-01
 cg2d: Sum(rhs),rhsMax =   1.84921522539128E-13  5.01519804966562E-01
 cg2d: Sum(rhs),rhsMax =  -2.24431584427975E-13  5.02167093660798E-01
 cg2d: Sum(rhs),rhsMax =  -1.00530694879808E-13  5.02825535167619E-01
 cg2d: Sum(rhs),rhsMax =   1.07608366661793E-13  5.03491977992118E-01
 cg2d: Sum(rhs),rhsMax =  -3.20993231994748E-14  5.04155426108779E-01
 cg2d: Sum(rhs),rhsMax =  -1.13922760114349E-13  5.04812394937299E-01
 cg2d: Sum(rhs),rhsMax =  -2.02476924116013E-13  5.05458848961133E-01
 cg2d: Sum(rhs),rhsMax =  -8.83876305479703E-14  5.06090844378766E-01
 cg2d: Sum(rhs),rhsMax =   1.22346577313692E-13  5.06704745967281E-01
 cg2d: Sum(rhs),rhsMax =  -4.32986979603811E-14  5.07297251575172E-01
 cg2d: Sum(rhs),rhsMax =  -8.69027072525341E-14  5.07865654047642E-01
 cg2d: Sum(rhs),rhsMax =   1.00752739484733E-14  5.08407950970639E-01
 cg2d: Sum(rhs),rhsMax =   1.05512820702813E-13  5.08922784087871E-01
 cg2d: Sum(rhs),rhsMax =  -6.15757445032727E-14  5.09409459683138E-01
 cg2d: Sum(rhs),rhsMax =  -2.06779038336435E-14  5.09867974118209E-01
 cg2d: Sum(rhs),rhsMax =   1.34017796860064E-13  5.10298945214201E-01
 cg2d: Sum(rhs),rhsMax =  -1.89986915088980E-13  5.10703659171101E-01
 cg2d: Sum(rhs),rhsMax =   1.41164857581089E-13  5.11083987706962E-01
 cg2d: Sum(rhs),rhsMax =  -1.11619047338252E-13  5.11442392893249E-01
 cg2d: Sum(rhs),rhsMax =  -2.67286193178506E-14  5.11765642950552E-01
 cg2d: Sum(rhs),rhsMax =   1.36321509636161E-13  5.12073950989431E-01
 cg2d: Sum(rhs),rhsMax =  -4.06660816132387E-13  5.12371202873541E-01
 cg2d: Sum(rhs),rhsMax =   1.76608727642247E-13  5.12661331399975E-01
 cg2d: Sum(rhs),rhsMax =   1.04499742192843E-14  5.12949504509283E-01
 cg2d: Sum(rhs),rhsMax =  -1.68226543806327E-13  5.13239077210757E-01
 cg2d: Sum(rhs),rhsMax =  -2.59764432186671E-13  5.13527886664652E-01
 cg2d: Sum(rhs),rhsMax =   3.17246229286638E-14  5.13820497896603E-01
 cg2d: Sum(rhs),rhsMax =   2.65898414397725E-14  5.14123983849837E-01
 cg2d: Sum(rhs),rhsMax =   1.27703403407509E-13  5.14442189886268E-01
 cg2d: Sum(rhs),rhsMax =   2.24709140184132E-13  5.14777794072997E-01
 cg2d: Sum(rhs),rhsMax =  -2.44693154627385E-13  5.15130541079191E-01
 cg2d: Sum(rhs),rhsMax =   7.46624984060418E-14  5.15503810640324E-01
 cg2d: Sum(rhs),rhsMax =   3.49165141244612E-14  5.15900457127241E-01
 cg2d: Sum(rhs),rhsMax =   1.21097576410989E-13  5.16323080955339E-01
 cg2d: Sum(rhs),rhsMax =   4.23827639650654E-14  5.16773795334177E-01
 cg2d: Sum(rhs),rhsMax =   1.09801057135428E-13  5.17253900788078E-01
 cg2d: Sum(rhs),rhsMax =   7.04714064880818E-14  5.17763932999714E-01
 cg2d: Sum(rhs),rhsMax =  -3.20576898360514E-14  5.18303824798379E-01
 cg2d: Sum(rhs),rhsMax =   1.28189125980782E-13  5.18870625023127E-01
 cg2d: Sum(rhs),rhsMax =  -1.79675718747774E-13  5.19459505043468E-01
 cg2d: Sum(rhs),rhsMax =   2.24958940364672E-14  5.20067496681421E-01
 cg2d: Sum(rhs),rhsMax =   3.33164051902202E-13  5.20693439415762E-01
 cg2d: Sum(rhs),rhsMax =   2.16021645016440E-13  5.21332203531400E-01
 cg2d: Sum(rhs),rhsMax =  -3.83165721373757E-14  5.21974687597732E-01
 cg2d: Sum(rhs),rhsMax =  -1.08191233749722E-13  5.22613420102775E-01
 cg2d: Sum(rhs),rhsMax =   4.88359352956991E-14  5.23245123901405E-01
 cg2d: Sum(rhs),rhsMax =  -1.66533453693773E-13  5.23866291826479E-01
 cg2d: Sum(rhs),rhsMax =   4.30211422042248E-15  5.24473543146229E-01
 cg2d: Sum(rhs),rhsMax =   1.57138191347883E-13  5.25063931347992E-01
 cg2d: Sum(rhs),rhsMax =   2.17326157070374E-13  5.25634876237958E-01
 cg2d: Sum(rhs),rhsMax =   1.41414657761629E-14  5.26184266210550E-01
 cg2d: Sum(rhs),rhsMax =  -4.39231984117328E-14  5.26710529148314E-01
 cg2d: Sum(rhs),rhsMax =   5.66491298314986E-14  5.27212572524323E-01
 cg2d: Sum(rhs),rhsMax =  -2.14966933143046E-14  5.27689844072003E-01
 cg2d: Sum(rhs),rhsMax =   1.74485426107651E-13  5.28142424360150E-01
 cg2d: Sum(rhs),rhsMax =   6.04932770542632E-14  5.28573558475702E-01
 cg2d: Sum(rhs),rhsMax =  -2.51604292955676E-14  5.28981941362702E-01
 cg2d: Sum(rhs),rhsMax =   1.71043734731313E-13  5.29369023761422E-01
 cg2d: Sum(rhs),rhsMax =   5.38458166943201E-15  5.29737466056060E-01
 cg2d: Sum(rhs),rhsMax =  -1.57207580286922E-13  5.30089742735737E-01
 cg2d: Sum(rhs),rhsMax =   7.45931094670027E-14  5.30427517912504E-01
 cg2d: Sum(rhs),rhsMax =   3.84831055910695E-14  5.30753694809367E-01
 cg2d: Sum(rhs),rhsMax =  -2.75890421619351E-13  5.31071330092095E-01
 cg2d: Sum(rhs),rhsMax =  -1.18946519300778E-13  5.31383136998485E-01
 cg2d: Sum(rhs),rhsMax =   6.53921361504217E-14  5.31687179324483E-01
 cg2d: Sum(rhs),rhsMax =  -2.39808173319034E-14  5.31986685205673E-01
 cg2d: Sum(rhs),rhsMax =  -2.00256478066763E-14  5.32284871605708E-01
 cg2d: Sum(rhs),rhsMax =  -1.52849954915268E-13  5.32584788403609E-01
 cg2d: Sum(rhs),rhsMax =   2.23432383705813E-14  5.32889547335428E-01
 cg2d: Sum(rhs),rhsMax =   1.40762401734662E-13  5.33201190210399E-01
 cg2d: Sum(rhs),rhsMax =  -2.53297383068229E-13  5.33520809497627E-01
 cg2d: Sum(rhs),rhsMax =  -3.85580456452317E-13  5.33847512426657E-01
 cg2d: Sum(rhs),rhsMax =   2.38573050204138E-13  5.34182788706659E-01
 cg2d: Sum(rhs),rhsMax =  -2.39946951197112E-14  5.34527917642513E-01
 cg2d: Sum(rhs),rhsMax =   4.20344314910892E-13  5.34883884568522E-01
 cg2d: Sum(rhs),rhsMax =   1.31700206296159E-13  5.35250773528426E-01
 cg2d: Sum(rhs),rhsMax =   8.92202978164391E-14  5.35626300347475E-01
 cg2d: Sum(rhs),rhsMax =  -2.56183962932255E-14  5.36009433603830E-01
 cg2d: Sum(rhs),rhsMax =  -1.04319330951341E-13  5.36399634918917E-01
 cg2d: Sum(rhs),rhsMax =   5.81340531269348E-14  5.36796848978161E-01
 cg2d: Sum(rhs),rhsMax =  -4.16333634234434E-14  5.37199619308869E-01
 cg2d: Sum(rhs),rhsMax =  -7.92421683826205E-14  5.37606331592936E-01
 cg2d: Sum(rhs),rhsMax =  -1.19099174966664E-13  5.38012113459064E-01
 cg2d: Sum(rhs),rhsMax =   9.00807206605236E-14  5.38413033476714E-01
 cg2d: Sum(rhs),rhsMax =  -6.43096687014122E-14  5.38807736875402E-01
 cg2d: Sum(rhs),rhsMax =   3.34871019802563E-14  5.39194517108302E-01
 cg2d: Sum(rhs),rhsMax =   9.06497099606440E-14  5.39571853055842E-01
 cg2d: Sum(rhs),rhsMax =  -7.07767178198537E-16  5.39938385387307E-01
 cg2d: Sum(rhs),rhsMax =   2.32730501537048E-14  5.40292880015374E-01
 cg2d: Sum(rhs),rhsMax =  -1.12493347970144E-13  5.40634418630674E-01
 cg2d: Sum(rhs),rhsMax =   1.77316494820445E-13  5.40962435875240E-01
 cg2d: Sum(rhs),rhsMax =  -7.93670684728909E-14  5.41276656102412E-01
 cg2d: Sum(rhs),rhsMax =   2.03587147140638E-14  5.41576995932809E-01
 cg2d: Sum(rhs),rhsMax =  -3.06588088250237E-13  5.41863691704385E-01
 cg2d: Sum(rhs),rhsMax =  -1.31422650540003E-14  5.42137184670921E-01
 cg2d: Sum(rhs),rhsMax =  -1.17544862732188E-14  5.42398327864326E-01
 cg2d: Sum(rhs),rhsMax =   4.27435864480685E-14  5.42648125915826E-01
 cg2d: Sum(rhs),rhsMax =  -1.56055723898874E-13  5.42887797283027E-01
 cg2d: Sum(rhs),rhsMax =  -4.88498130835069E-15  5.43097307453756E-01
 cg2d: Sum(rhs),rhsMax =   6.01602101468757E-14  5.43299640993770E-01
 cg2d: Sum(rhs),rhsMax =   8.87900863943969E-14  5.43496637526452E-01
 cg2d: Sum(rhs),rhsMax =   1.14228071446121E-13  5.43686423133916E-01
 cg2d: Sum(rhs),rhsMax =   1.89570581454745E-14  5.43872420884662E-01
 cg2d: Sum(rhs),rhsMax =   1.92151849986999E-13  5.44053441046567E-01
 cg2d: Sum(rhs),rhsMax =   9.62285806593854E-14  5.44232586653026E-01
 cg2d: Sum(rhs),rhsMax =   1.30701005573997E-13  5.44411989041286E-01
 cg2d: Sum(rhs),rhsMax =   3.75255382323303E-14  5.44594427281357E-01
 cg2d: Sum(rhs),rhsMax =   2.62567745323850E-14  5.44781157308314E-01
 cg2d: Sum(rhs),rhsMax =  -4.30211422042248E-14  5.44973026792213E-01
 cg2d: Sum(rhs),rhsMax =  -1.63466462588246E-13  5.45170762418015E-01
 cg2d: Sum(rhs),rhsMax =   1.39374622953881E-13  5.45374662614623E-01
 cg2d: Sum(rhs),rhsMax =  -1.63868918434673E-13  5.45584722461018E-01
 cg2d: Sum(rhs),rhsMax =   7.10820291516256E-14  5.45800643071648E-01
 cg2d: Sum(rhs),rhsMax =  -1.48103751484996E-13  5.46021854009509E-01
 cg2d: Sum(rhs),rhsMax =  -1.45439216225896E-13  5.46248534282502E-01
 cg2d: Sum(rhs),rhsMax =  -1.80938597438285E-13  5.46480281178565E-01
 cg2d: Sum(rhs),rhsMax =  -1.61454183356113E-13  5.46715982325447E-01
 cg2d: Sum(rhs),rhsMax =   2.06681893821781E-13  5.46954305838411E-01
 cg2d: Sum(rhs),rhsMax =   1.69642078162724E-13  5.47193720283840E-01
 cg2d: Sum(rhs),rhsMax =  -1.12271303365219E-14  5.47430723780097E-01
 cg2d: Sum(rhs),rhsMax =   3.87467835594180E-14  5.47661250979035E-01
 cg2d: Sum(rhs),rhsMax =  -3.15636405900932E-13  5.47883677974388E-01
 cg2d: Sum(rhs),rhsMax =  -2.22058482712839E-13  5.48096633743633E-01
 cg2d: Sum(rhs),rhsMax =   9.35085342490538E-14  5.48298897069472E-01
 cg2d: Sum(rhs),rhsMax =   1.81049619740747E-13  5.48489402951710E-01
 cg2d: Sum(rhs),rhsMax =  -1.36765598846011E-13  5.48667375060968E-01
 cg2d: Sum(rhs),rhsMax =   7.68829444552921E-15  5.48832283709316E-01
 cg2d: Sum(rhs),rhsMax =   9.99339500040719E-14  5.48983875779604E-01
 cg2d: Sum(rhs),rhsMax =  -2.13593032150072E-13  5.49121169363504E-01
 cg2d: Sum(rhs),rhsMax =  -5.70377078901174E-14  5.49247043486906E-01
 cg2d: Sum(rhs),rhsMax =  -1.35932931577543E-13  5.49359989173596E-01
 cg2d: Sum(rhs),rhsMax =  -2.22696860951999E-13  5.49461369286080E-01
 cg2d: Sum(rhs),rhsMax =   1.25899290992493E-13  5.49552427153559E-01
 cg2d: Sum(rhs),rhsMax =  -1.71807013060743E-14  5.49634381661542E-01
 cg2d: Sum(rhs),rhsMax =   2.24820162486594E-14  5.49708650413578E-01
 cg2d: Sum(rhs),rhsMax =   9.66032809301964E-14  5.49776698358575E-01
 cg2d: Sum(rhs),rhsMax =  -1.92484916894387E-14  5.49839947511005E-01
 cg2d: Sum(rhs),rhsMax =  -1.75678915859123E-13  5.49895451015049E-01
 cg2d: Sum(rhs),rhsMax =  -1.03556052621911E-13  5.49945256501457E-01
 cg2d: Sum(rhs),rhsMax =   1.93359217526279E-13  5.49990940561509E-01
 cg2d: Sum(rhs),rhsMax =   2.66231481305113E-13  5.50036277878470E-01
 cg2d: Sum(rhs),rhsMax =   1.99798511069105E-13  5.50081109420727E-01
 cg2d: Sum(rhs),rhsMax =  -2.49203435664924E-13  5.50126975909355E-01
 cg2d: Sum(rhs),rhsMax =   6.57945919968483E-14  5.50173373726840E-01
 cg2d: Sum(rhs),rhsMax =   1.99035232739675E-13  5.50222034920759E-01
 cg2d: Sum(rhs),rhsMax =  -2.74696931867879E-13  5.50274547657927E-01
 cg2d: Sum(rhs),rhsMax =  -2.83523204913649E-14  5.50332450012545E-01
 cg2d: Sum(rhs),rhsMax =  -1.16406884131948E-13  5.50396933512146E-01
 cg2d: Sum(rhs),rhsMax =  -4.32293090213420E-14  5.50469068775874E-01
 cg2d: Sum(rhs),rhsMax =  -1.87433402132342E-13  5.50549423015963E-01
 cg2d: Sum(rhs),rhsMax =  -3.23088777953728E-13  5.50638363910406E-01
 cg2d: Sum(rhs),rhsMax =   1.26329502414535E-13  5.50735870523541E-01
 cg2d: Sum(rhs),rhsMax =   7.34273752911463E-14  5.50841628483696E-01
 cg2d: Sum(rhs),rhsMax =  -1.44190215323192E-13  5.50952689076477E-01
 cg2d: Sum(rhs),rhsMax =   3.48124307159026E-13  5.51067742396075E-01
 cg2d: Sum(rhs),rhsMax =  -2.84550161211428E-13  5.51185376782543E-01
 cg2d: Sum(rhs),rhsMax =   6.50868248186498E-14  5.51304177969386E-01
 cg2d: Sum(rhs),rhsMax =   1.63757896132211E-15  5.51419688142865E-01
 cg2d: Sum(rhs),rhsMax =  -1.13298259662997E-13  5.51527730163603E-01
 cg2d: Sum(rhs),rhsMax =  -1.23470678126125E-13  5.51626673249657E-01
 cg2d: Sum(rhs),rhsMax =   2.80636625049624E-13  5.51714996608550E-01
 cg2d: Sum(rhs),rhsMax =  -1.31991639840123E-13  5.51790829426219E-01
 cg2d: Sum(rhs),rhsMax =   1.24317223182402E-13  5.51853471239277E-01
 cg2d: Sum(rhs),rhsMax =  -1.21985754830689E-14  5.51902512669762E-01
 cg2d: Sum(rhs),rhsMax =  -1.06220587881012E-13  5.51937739940948E-01
 cg2d: Sum(rhs),rhsMax =  -6.86950496486816E-14  5.51959237375884E-01
 cg2d: Sum(rhs),rhsMax =  -4.11198852745542E-14  5.51967437483611E-01
 cg2d: Sum(rhs),rhsMax =  -1.53169144034848E-13  5.51963074693369E-01
 cg2d: Sum(rhs),rhsMax =   3.21548343507061E-14  5.51947334342998E-01
 cg2d: Sum(rhs),rhsMax =   2.56294985234717E-13  5.51921641032811E-01
 cg2d: Sum(rhs),rhsMax =  -1.07219788603174E-13  5.51887449124868E-01
 cg2d: Sum(rhs),rhsMax =  -1.34198208101566E-14  5.51846310162935E-01
 cg2d: Sum(rhs),rhsMax =  -2.40085729075190E-14  5.51800153402193E-01
 cg2d: Sum(rhs),rhsMax =   2.21961338198184E-13  5.51750912909374E-01
 cg2d: Sum(rhs),rhsMax =  -2.22322160681188E-14  5.51700586859133E-01
 cg2d: Sum(rhs),rhsMax =   3.57908147563535E-14  5.51650947013547E-01
 cg2d: Sum(rhs),rhsMax =   2.16757167770254E-13  5.51598213532153E-01
 cg2d: Sum(rhs),rhsMax =  -1.25260912753333E-13  5.51544479233624E-01
 cg2d: Sum(rhs),rhsMax =  -6.31578123133636E-14  5.51490895140589E-01
 cg2d: Sum(rhs),rhsMax =  -4.37150315946155E-14  5.51439133305085E-01
 cg2d: Sum(rhs),rhsMax =  -6.35325125841746E-14  5.51388067364030E-01
 cg2d: Sum(rhs),rhsMax =  -1.61634594597615E-13  5.51339755144632E-01
 cg2d: Sum(rhs),rhsMax =   8.34055047249649E-14  5.51295861977484E-01
 cg2d: Sum(rhs),rhsMax =   2.55101495483245E-13  5.51257890514263E-01
 cg2d: Sum(rhs),rhsMax =   2.96887514572575E-13  5.51227519980300E-01
 cg2d: Sum(rhs),rhsMax =   3.46944695195361E-15  5.51206112904302E-01
 cg2d: Sum(rhs),rhsMax =  -1.25163768238679E-13  5.51194269203776E-01
 cg2d: Sum(rhs),rhsMax =   7.88674681118096E-14  5.51192921353055E-01
 cg2d: Sum(rhs),rhsMax =   1.35197408823728E-13  5.51202310036464E-01
 cg2d: Sum(rhs),rhsMax =   6.46011022453763E-14  5.51222387981882E-01
 cg2d: Sum(rhs),rhsMax =  -9.01223540239471E-14  5.51254409975957E-01
 cg2d: Sum(rhs),rhsMax =  -1.10980669099092E-13  5.51291684489780E-01
 cg2d: Sum(rhs),rhsMax =   2.38767339233448E-13  5.51342563409975E-01
 cg2d: Sum(rhs),rhsMax =  -4.58105775535955E-14  5.51395243151679E-01
 cg2d: Sum(rhs),rhsMax =   1.78690395813419E-13  5.51450921508524E-01
 cg2d: Sum(rhs),rhsMax =   6.75987044118642E-14  5.51506809092032E-01
 cg2d: Sum(rhs),rhsMax =  -1.65423230669148E-13  5.51561750472360E-01
 cg2d: Sum(rhs),rhsMax =   1.38972167107454E-13  5.51576442170734E-01
 cg2d: Sum(rhs),rhsMax =  -1.02806652080289E-13  5.51580321393634E-01
 cg2d: Sum(rhs),rhsMax =   2.96151991818761E-14  5.51571508350687E-01
 cg2d: Sum(rhs),rhsMax =  -3.06338288069696E-13  5.51547789642440E-01
 cg2d: Sum(rhs),rhsMax =  -1.84408044390239E-13  5.51508021915822E-01
 cg2d: Sum(rhs),rhsMax =  -1.24136811940900E-13  5.51451684477405E-01
 cg2d: Sum(rhs),rhsMax =  -1.88613014096006E-13  5.51377900186897E-01
 cg2d: Sum(rhs),rhsMax =   3.07323611004051E-13  5.51287289060383E-01
 cg2d: Sum(rhs),rhsMax =   3.00454106039183E-14  5.51180297499708E-01
 cg2d: Sum(rhs),rhsMax =  -2.98094882111855E-14  5.51057780934956E-01
 cg2d: Sum(rhs),rhsMax =  -2.15244488899202E-13  5.50920677924610E-01
 cg2d: Sum(rhs),rhsMax =   1.24900090270330E-14  5.50770308426503E-01
 cg2d: Sum(rhs),rhsMax =  -1.15435438985401E-13  5.50608208229895E-01
 cg2d: Sum(rhs),rhsMax =   1.89126492244895E-13  5.50436157593766E-01
 cg2d: Sum(rhs),rhsMax =   1.94608218428982E-13  5.50256170260424E-01
 cg2d: Sum(rhs),rhsMax =   9.69224700497762E-14  5.50070235426657E-01
 cg2d: Sum(rhs),rhsMax =   1.42094669364212E-13  5.49878347715291E-01
 cg2d: Sum(rhs),rhsMax =   1.01099684179928E-13  5.49689664563555E-01
 cg2d: Sum(rhs),rhsMax =   2.15674700321244E-13  5.49493634028803E-01
 cg2d: Sum(rhs),rhsMax =  -1.97813987412587E-13  5.49292731157934E-01
 cg2d: Sum(rhs),rhsMax =  -2.49661402662582E-14  5.49095558258704E-01
 cg2d: Sum(rhs),rhsMax =   2.13273843030493E-13  5.48894735821406E-01
 cg2d: Sum(rhs),rhsMax =   7.99083021973956E-14  5.48692330820709E-01
 cg2d: Sum(rhs),rhsMax =  -2.48412401759879E-14  5.48493603073868E-01
 cg2d: Sum(rhs),rhsMax =   5.42760281163623E-14  5.48292740909138E-01
 cg2d: Sum(rhs),rhsMax =  -1.51642587375989E-13  5.48093113882815E-01
 cg2d: Sum(rhs),rhsMax =  -1.88113413734925E-13  5.47903577712437E-01
 cg2d: Sum(rhs),rhsMax =   2.50993670292132E-13  5.47717013056801E-01
 cg2d: Sum(rhs),rhsMax =  -2.19546603119625E-14  5.47536922465265E-01
 cg2d: Sum(rhs),rhsMax =  -3.41379702284428E-13  5.47370576468557E-01
 cg2d: Sum(rhs),rhsMax =   2.19074758334159E-13  5.47209682390223E-01
 cg2d: Sum(rhs),rhsMax =  -1.26676447109730E-13  5.47057149714087E-01
 cg2d: Sum(rhs),rhsMax =  -4.60048665829049E-14  5.46919512435496E-01
 cg2d: Sum(rhs),rhsMax =  -5.50670620214078E-14  5.46785508388488E-01
 cg2d: Sum(rhs),rhsMax =   2.01047511971808E-13  5.46666259183991E-01
 cg2d: Sum(rhs),rhsMax =  -2.33008057293205E-14  5.46551537652390E-01
 cg2d: Sum(rhs),rhsMax =   9.05525654459893E-14  5.46445316731511E-01
 cg2d: Sum(rhs),rhsMax =   5.15004705547994E-14  5.46348442718596E-01
 cg2d: Sum(rhs),rhsMax =   8.91786644530157E-14  5.46249226510182E-01
 cg2d: Sum(rhs),rhsMax =   2.43693953905222E-13  5.45975785691508E-01
 cg2d: Sum(rhs),rhsMax =  -9.96286386723000E-14  5.45544282055973E-01
 cg2d: Sum(rhs),rhsMax =   1.05040975917348E-13  5.45103233414143E-01
 cg2d: Sum(rhs),rhsMax =   2.63081223472739E-13  5.44653865259547E-01
 cg2d: Sum(rhs),rhsMax =   3.30846461338297E-14  5.44199466322965E-01
 cg2d: Sum(rhs),rhsMax =  -1.34059430223488E-13  5.43729370883712E-01
(PID.TID 0000.0001) // =======================================================
(PID.TID 0000.0001) // Begin MONITOR dynamic field statistics
(PID.TID 0000.0001) // =======================================================
(PID.TID 0000.0001) %MON time_tsnumber                =                  6480
(PID.TID 0000.0001) %MON time_secondsf                =   7.7760000000000E+06
(PID.TID 0000.0001) %MON dynstat_eta_max              =   1.2588303270159E-01
(PID.TID 0000.0001) %MON dynstat_eta_min              =  -1.6844075463918E-01
(PID.TID 0000.0001) %MON dynstat_eta_mean             =   5.9044603409536E-17
(PID.TID 0000.0001) %MON dynstat_eta_sd               =   7.3695649188253E-02
(PID.TID 0000.0001) %MON dynstat_eta_del2             =   3.5204633995409E-04
(PID.TID 0000.0001) %MON dynstat_uvel_max             =   3.2074230317807E-01
(PID.TID 0000.0001) %MON dynstat_uvel_min             =  -4.1974697482881E-01
(PID.TID 0000.0001) %MON dynstat_uvel_mean            =  -2.9669326105949E-05
(PID.TID 0000.0001) %MON dynstat_uvel_sd              =   1.0939469310427E-02
(PID.TID 0000.0001) %MON dynstat_uvel_del2            =   3.4602355459481E-04
(PID.TID 0000.0001) %MON dynstat_vvel_max             =   3.8604532021208E-01
(PID.TID 0000.0001) %MON dynstat_vvel_min             =  -2.7008355066205E-01
(PID.TID 0000.0001) %MON dynstat_vvel_mean            =  -5.5791681212593E-07
(PID.TID 0000.0001) %MON dynstat_vvel_sd              =   1.1976020941306E-02
(PID.TID 0000.0001) %MON dynstat_vvel_del2            =   2.1608221189846E-04
(PID.TID 0000.0001) %MON dynstat_wvel_max             =   1.7060117620866E-04
(PID.TID 0000.0001) %MON dynstat_wvel_min             =  -2.2059583582531E-04
(PID.TID 0000.0001) %MON dynstat_wvel_mean            =   7.6378881067653E-24
(PID.TID 0000.0001) %MON dynstat_wvel_sd              =   9.6040490979891E-06
(PID.TID 0000.0001) %MON dynstat_wvel_del2            =   2.5221493026863E-07
(PID.TID 0000.0001) %MON dynstat_theta_max            =   2.6732597710854E+01
(PID.TID 0000.0001) %MON dynstat_theta_min            =   9.9106375871676E-01
(PID.TID 0000.0001) %MON dynstat_theta_mean           =   4.0411566681506E+00
(PID.TID 0000.0001) %MON dynstat_theta_sd             =   4.5341596299099E+00
(PID.TID 0000.0001) %MON dynstat_theta_del2           =   2.6629236993247E-03
(PID.TID 0000.0001) %MON dynstat_salt_max             =   3.4500000000007E+01
(PID.TID 0000.0001) %MON dynstat_salt_min             =   3.4499999999988E+01
(PID.TID 0000.0001) %MON dynstat_salt_mean            =   3.4499999999999E+01
(PID.TID 0000.0001) %MON dynstat_salt_sd              =   1.2892429215909E-12
(PID.TID 0000.0001) %MON dynstat_salt_del2            =   9.8466370844831E-15
(PID.TID 0000.0001) %MON trAdv_CFL_u_max              =   1.2816727650349E-02
(PID.TID 0000.0001) %MON trAdv_CFL_v_max              =   4.2548538884910E-03
(PID.TID 0000.0001) %MON trAdv_CFL_w_max              =   1.8510007808883E-02
(PID.TID 0000.0001) %MON advcfl_uvel_max              =   1.2816564976030E-02
(PID.TID 0000.0001) %MON advcfl_vvel_max              =   4.1668007941466E-03
(PID.TID 0000.0001) %MON advcfl_wvel_max              =   1.7359897674559E-02
(PID.TID 0000.0001) %MON advcfl_W_hf_max              =   1.8510007808883E-02
(PID.TID 0000.0001) %MON pe_b_mean                    =   8.5816220891273E-06
(PID.TID 0000.0001) %MON ke_max                       =   1.0084205635095E-01
(PID.TID 0000.0001) %MON ke_mean                      =   1.2871211238092E-04
(PID.TID 0000.0001) %MON ke_vol                       =   7.5744557036543E+16
(PID.TID 0000.0001) %MON vort_r_min                   =  -8.0584147619558E-06
(PID.TID 0000.0001) %MON vort_r_max                   =   8.8232110063122E-06
(PID.TID 0000.0001) %MON vort_a_mean                  =   9.3555569952477E-05
(PID.TID 0000.0001) %MON vort_a_sd                    =   2.5194999364802E-05
(PID.TID 0000.0001) %MON vort_p_mean                  =   9.7478626213492E-05
(PID.TID 0000.0001) %MON vort_p_sd                    =   3.9507932798246E-05
(PID.TID 0000.0001) %MON surfExpan_theta_mean         =   3.3551499249745E-09
(PID.TID 0000.0001) %MON surfExpan_salt_mean          =  -2.3108354464417E-21
(PID.TID 0000.0001) // =======================================================
(PID.TID 0000.0001) // End MONITOR dynamic field statistics
(PID.TID 0000.0001) // =======================================================
(PID.TID 0000.0001) %CHECKPOINT      6480 ckptA
 cg2d: Sum(rhs),rhsMax =   1.00489061516384E-13  5.43247373161206E-01
 cg2d: Sum(rhs),rhsMax =   6.49480469405717E-15  5.42752062783394E-01
 cg2d: Sum(rhs),rhsMax =  -4.31182867188795E-14  5.42243326381886E-01
 cg2d: Sum(rhs),rhsMax =  -1.14630527292547E-13  5.41722620329469E-01
 cg2d: Sum(rhs),rhsMax =   2.20656826144250E-14  5.41190336839938E-01
 cg2d: Sum(rhs),rhsMax =   3.43058914609173E-14  5.40646907637055E-01
 cg2d: Sum(rhs),rhsMax =   1.48742129724155E-13  5.40093075282978E-01
 cg2d: Sum(rhs),rhsMax =  -5.72736302828503E-14  5.39529652071937E-01
 cg2d: Sum(rhs),rhsMax =   5.28327381843496E-14  5.38955224545989E-01
 cg2d: Sum(rhs),rhsMax =   1.12881926028763E-13  5.38379119831521E-01
 cg2d: Sum(rhs),rhsMax =   2.67286193178506E-14  5.37789915428480E-01
 cg2d: Sum(rhs),rhsMax =  -3.06976666308856E-14  5.37201418977230E-01
 cg2d: Sum(rhs),rhsMax =  -6.79040157436361E-14  5.36604297598322E-01
 cg2d: Sum(rhs),rhsMax =   1.85282345022131E-13  5.36000361578174E-01
 cg2d: Sum(rhs),rhsMax =   1.64895874732451E-13  5.35390515605689E-01
 cg2d: Sum(rhs),rhsMax =   1.13326015238613E-13  5.34776491106338E-01
 cg2d: Sum(rhs),rhsMax =   3.07531777821168E-14  5.34159257852482E-01
 cg2d: Sum(rhs),rhsMax =  -1.81521464526213E-14  5.33537329814498E-01
 cg2d: Sum(rhs),rhsMax =  -1.66949787328008E-14  5.32910536116401E-01
 cg2d: Sum(rhs),rhsMax =  -1.49061318843735E-13  5.32282116573320E-01
 cg2d: Sum(rhs),rhsMax =  -2.39530617562878E-14  5.31654455274501E-01
 cg2d: Sum(rhs),rhsMax =   7.43849426498855E-15  5.31028511062109E-01
 cg2d: Sum(rhs),rhsMax =  -4.52693438290908E-14  5.30405567891879E-01
 cg2d: Sum(rhs),rhsMax =  -1.51129109227099E-14  5.29786834686119E-01
 cg2d: Sum(rhs),rhsMax =   3.09058334480028E-14  5.29173156989266E-01
 cg2d: Sum(rhs),rhsMax =   1.29465882459101E-13  5.28565164298879E-01
 cg2d: Sum(rhs),rhsMax =  -1.92915128316429E-13  5.27963357786999E-01
 cg2d: Sum(rhs),rhsMax =  -7.96446242290472E-14  5.27367659237190E-01
 cg2d: Sum(rhs),rhsMax =   1.69433911345607E-13  5.26779217229125E-01
 cg2d: Sum(rhs),rhsMax =  -3.01453306761346E-13  5.26198611833687E-01
 cg2d: Sum(rhs),rhsMax =  -1.03431152531641E-13  5.25623215546128E-01
 cg2d: Sum(rhs),rhsMax =   4.40758540776187E-14  5.25050590349730E-01
 cg2d: Sum(rhs),rhsMax =   2.68438049566555E-13  5.24479911834126E-01
 cg2d: Sum(rhs),rhsMax =   1.25316423904565E-13  5.23910374432840E-01
 cg2d: Sum(rhs),rhsMax =  -3.44724249146111E-14  5.23340877892039E-01
 cg2d: Sum(rhs),rhsMax =  -4.75175454539567E-14  5.22770267668254E-01
 cg2d: Sum(rhs),rhsMax =   3.08780778723872E-14  5.22196373144673E-01
 cg2d: Sum(rhs),rhsMax =  -1.06553654788399E-13  5.22203920147347E-01
 cg2d: Sum(rhs),rhsMax =  -6.12149220202696E-14  5.22277238244010E-01
 cg2d: Sum(rhs),rhsMax =   1.02265418355785E-13  5.22362478646523E-01
 cg2d: Sum(rhs),rhsMax =  -1.06636921515246E-13  5.22459860989940E-01
 cg2d: Sum(rhs),rhsMax =   3.45001804902267E-14  5.22569767661165E-01
 cg2d: Sum(rhs),rhsMax =   2.67758037963972E-13  5.22691327398380E-01
 cg2d: Sum(rhs),rhsMax =  -6.08957329006898E-14  5.22825692088207E-01
 cg2d: Sum(rhs),rhsMax =   1.56125112837913E-13  5.22971327147009E-01
 cg2d: Sum(rhs),rhsMax =  -7.16093850883226E-15  5.23131241423286E-01
 cg2d: Sum(rhs),rhsMax =   1.63771773920018E-13  5.23302253591784E-01
 cg2d: Sum(rhs),rhsMax =  -2.12913020547489E-13  5.23484079712879E-01
 cg2d: Sum(rhs),rhsMax =   5.48727729920984E-14  5.23675709617427E-01
 cg2d: Sum(rhs),rhsMax =   1.23956400699399E-13  5.23875997005038E-01
 cg2d: Sum(rhs),rhsMax =   1.29327104581023E-13  5.24083694615889E-01
 cg2d: Sum(rhs),rhsMax =   2.22155627227494E-13  5.24297444103502E-01
 cg2d: Sum(rhs),rhsMax =   6.48370246381091E-14  5.24515056921894E-01
 cg2d: Sum(rhs),rhsMax =   1.29410371307870E-13  5.24734969687716E-01
 cg2d: Sum(rhs),rhsMax =  -3.70675712346724E-14  5.24955116512788E-01
 cg2d: Sum(rhs),rhsMax =   4.05925293378573E-14  5.25174559221881E-01
 cg2d: Sum(rhs),rhsMax =  -4.89469575981616E-14  5.25393233414338E-01
 cg2d: Sum(rhs),rhsMax =  -3.34871019802563E-14  5.25606355541035E-01
 cg2d: Sum(rhs),rhsMax =   6.91807722219551E-14  5.25815421880272E-01
 cg2d: Sum(rhs),rhsMax =   4.20219414820622E-14  5.26018450192356E-01
 cg2d: Sum(rhs),rhsMax =   1.41137102005473E-14  5.26214403807226E-01
 cg2d: Sum(rhs),rhsMax =   1.08635322959572E-13  5.26402358039946E-01
 cg2d: Sum(rhs),rhsMax =   4.08895139969445E-13  5.26581581182566E-01
 cg2d: Sum(rhs),rhsMax =   1.84047221907235E-13  5.26751456469085E-01
 cg2d: Sum(rhs),rhsMax =  -2.54241072639161E-14  5.26911601065936E-01
 cg2d: Sum(rhs),rhsMax =   6.79317713192518E-14  5.27061788712261E-01
 cg2d: Sum(rhs),rhsMax =  -8.95672425116345E-14  5.27202002449344E-01
 cg2d: Sum(rhs),rhsMax =   1.40956690763971E-13  5.27331973772930E-01
 cg2d: Sum(rhs),rhsMax =   4.40203429263875E-14  5.27453096160123E-01
 cg2d: Sum(rhs),rhsMax =   2.31037411424495E-13  5.27564970038741E-01
 cg2d: Sum(rhs),rhsMax =  -2.20781726234520E-13  5.27668512179391E-01
 cg2d: Sum(rhs),rhsMax =  -1.33629218801445E-13  5.27764499601426E-01
 cg2d: Sum(rhs),rhsMax =  -8.78602746112733E-14  5.27853824500678E-01
 cg2d: Sum(rhs),rhsMax =  -1.38500322321988E-13  5.27937511275756E-01
 cg2d: Sum(rhs),rhsMax =  -7.10126402125866E-14  5.28016602753501E-01
 cg2d: Sum(rhs),rhsMax =  -5.67740299217689E-14  5.28092270637655E-01
 cg2d: Sum(rhs),rhsMax =   1.69100844438219E-13  5.28165649407751E-01
 cg2d: Sum(rhs),rhsMax =   1.10383924223356E-13  5.28237909210499E-01
 cg2d: Sum(rhs),rhsMax =  -7.82846010238814E-14  5.28310194020870E-01
 cg2d: Sum(rhs),rhsMax =   5.78287417951628E-14  5.28383635833269E-01
 cg2d: Sum(rhs),rhsMax =  -5.63854518631501E-14  5.28459359419374E-01
 cg2d: Sum(rhs),rhsMax =  -2.00381378157033E-13  5.28538366552808E-01
 cg2d: Sum(rhs),rhsMax =   1.61620716809807E-13  5.28621594783917E-01
 cg2d: Sum(rhs),rhsMax =  -1.11050058038131E-13  5.28709783410530E-01
 cg2d: Sum(rhs),rhsMax =  -6.68909372336657E-15  5.28803584492534E-01
 cg2d: Sum(rhs),rhsMax =  -5.53307399897562E-14  5.28903618170898E-01
 cg2d: Sum(rhs),rhsMax =  -9.58816359641901E-14  5.29010403664891E-01
 cg2d: Sum(rhs),rhsMax =  -1.57096557984460E-14  5.29124285850519E-01
 cg2d: Sum(rhs),rhsMax =  -3.62349039662035E-14  5.29245382459525E-01
 cg2d: Sum(rhs),rhsMax =   2.64926969251178E-14  5.29373717711483E-01
 cg2d: Sum(rhs),rhsMax =   2.77833311912445E-14  5.29509171095201E-01
 cg2d: Sum(rhs),rhsMax =  -8.10462807976364E-15  5.29651527826005E-01
 cg2d: Sum(rhs),rhsMax =  -2.23529528220467E-13  5.29800463724891E-01
 cg2d: Sum(rhs),rhsMax =  -1.46271883494364E-14  5.29955562141213E-01
 cg2d: Sum(rhs),rhsMax =   5.61217738948017E-14  5.30116183672098E-01
 cg2d: Sum(rhs),rhsMax =  -6.39210906427934E-14  5.30281736918905E-01
 cg2d: Sum(rhs),rhsMax =   5.60801405313782E-14  5.30451590672771E-01
 cg2d: Sum(rhs),rhsMax =  -4.28962421139545E-14  5.30624288401059E-01
 cg2d: Sum(rhs),rhsMax =  -6.00353100566053E-14  5.30799980051001E-01
 cg2d: Sum(rhs),rhsMax =  -2.04697370165263E-14  5.30976946680598E-01
 cg2d: Sum(rhs),rhsMax =   2.04974925921420E-14  5.31154785728920E-01
 cg2d: Sum(rhs),rhsMax =  -9.25787224659302E-14  5.31332490987634E-01
 cg2d: Sum(rhs),rhsMax =  -1.35738642548233E-13  5.31509198235543E-01
 cg2d: Sum(rhs),rhsMax =   1.88904447639970E-13  5.31684109471184E-01
 cg2d: Sum(rhs),rhsMax =  -5.79536418854332E-14  5.31856414329860E-01
 cg2d: Sum(rhs),rhsMax =   1.63494218163862E-13  5.32025461242505E-01
 cg2d: Sum(rhs),rhsMax =   1.52780565976229E-13  5.32190570343725E-01
 cg2d: Sum(rhs),rhsMax =   8.47655279301307E-14  5.32351236111728E-01
 cg2d: Sum(rhs),rhsMax =   1.01779695782511E-13  5.32506955801299E-01
 cg2d: Sum(rhs),rhsMax =  -2.12246886732714E-13  5.32657405954216E-01
 cg2d: Sum(rhs),rhsMax =   1.41331391034782E-13  5.32800744373393E-01
 cg2d: Sum(rhs),rhsMax =   3.44183015421606E-13  5.32940536384400E-01
 cg2d: Sum(rhs),rhsMax =   1.29604660337179E-13  5.33074012143328E-01
 cg2d: Sum(rhs),rhsMax =  -8.45157277495900E-14  5.33201709831767E-01
 cg2d: Sum(rhs),rhsMax =   1.66505698118158E-13  5.33322721318865E-01
 cg2d: Sum(rhs),rhsMax =  -1.44689815684274E-13  5.33438258370267E-01
 cg2d: Sum(rhs),rhsMax =   1.58720259157974E-13  5.33548643971183E-01
 cg2d: Sum(rhs),rhsMax =   1.16989751219876E-14  5.33655956142362E-01
 cg2d: Sum(rhs),rhsMax =  -7.35522753814166E-15  5.33754593625394E-01
 cg2d: Sum(rhs),rhsMax =   8.93313201189017E-14  5.33854239480546E-01
 cg2d: Sum(rhs),rhsMax =   1.51142987014907E-13  5.33946531765308E-01
 cg2d: Sum(rhs),rhsMax =  -1.67796332384285E-13  5.34040881082862E-01
 cg2d: Sum(rhs),rhsMax =   2.16993090162987E-13  5.34129507311877E-01
 cg2d: Sum(rhs),rhsMax =   2.14661621811274E-13  5.34217022106764E-01
 cg2d: Sum(rhs),rhsMax =  -5.15004705547994E-14  5.34301548999929E-01
 cg2d: Sum(rhs),rhsMax =   1.76164638432397E-13  5.34389181796279E-01
 cg2d: Sum(rhs),rhsMax =  -1.43648981598687E-13  5.34471657232880E-01
 cg2d: Sum(rhs),rhsMax =   2.40085729075190E-14  5.34557138813868E-01
 cg2d: Sum(rhs),rhsMax =  -7.45375983157714E-14  5.34642392350754E-01
 cg2d: Sum(rhs),rhsMax =  -2.00769956215652E-13  5.34728361787583E-01
 cg2d: Sum(rhs),rhsMax =   1.55597756901216E-13  5.34815418492591E-01
 cg2d: Sum(rhs),rhsMax =  -9.73388036840106E-14  5.34903850717841E-01
 cg2d: Sum(rhs),rhsMax =   2.18478013458423E-13  5.34993913193244E-01
 cg2d: Sum(rhs),rhsMax =   3.30152571947906E-14  5.35085775235830E-01
 cg2d: Sum(rhs),rhsMax =   4.55885329486705E-14  5.35179644373939E-01
 cg2d: Sum(rhs),rhsMax =  -9.86710713135608E-15  5.35275616907500E-01
 cg2d: Sum(rhs),rhsMax =   2.07306394273132E-13  5.35373763038220E-01
 cg2d: Sum(rhs),rhsMax =   7.92005350191971E-14  5.35475591055901E-01
 cg2d: Sum(rhs),rhsMax =   1.48436818392383E-13  5.35575883240312E-01
 cg2d: Sum(rhs),rhsMax =   3.28695404228085E-13  5.35682381554395E-01
 cg2d: Sum(rhs),rhsMax =   1.53349555276350E-14  5.35788009189027E-01
 cg2d: Sum(rhs),rhsMax =   9.44522238199852E-14  5.35896105368323E-01
 cg2d: Sum(rhs),rhsMax =  -1.39610545346613E-13  5.36005669306896E-01
 cg2d: Sum(rhs),rhsMax =   3.23824300707543E-13  5.36116514184458E-01
 cg2d: Sum(rhs),rhsMax =  -2.20684581719865E-13  5.36228343986949E-01
 cg2d: Sum(rhs),rhsMax =  -2.34881558647260E-13  5.36340916098323E-01
 cg2d: Sum(rhs),rhsMax =   8.57647286522933E-14  5.36453954019215E-01
 cg2d: Sum(rhs),rhsMax =   1.80438997077204E-13  5.36567122534062E-01
 cg2d: Sum(rhs),rhsMax =  -3.04978264864531E-13  5.36678775951764E-01
 cg2d: Sum(rhs),rhsMax =  -2.83800760669806E-14  5.36791856213927E-01
 cg2d: Sum(rhs),rhsMax =  -2.19782525512358E-13  5.36903634794285E-01
 cg2d: Sum(rhs),rhsMax =  -3.13638004456607E-15  5.37014192855083E-01
 cg2d: Sum(rhs),rhsMax =  -1.84491311117085E-13  5.37123249637241E-01
 cg2d: Sum(rhs),rhsMax =  -9.38138455808257E-15  5.37230452601830E-01
 cg2d: Sum(rhs),rhsMax =  -3.78586051397178E-14  5.37335436594355E-01
 cg2d: Sum(rhs),rhsMax =  -1.88876692064355E-14  5.37437843770858E-01
 cg2d: Sum(rhs),rhsMax =  -1.12437836818913E-13  5.37537336681812E-01
 cg2d: Sum(rhs),rhsMax =   3.51246809415784E-14  5.37633573335607E-01
 cg2d: Sum(rhs),rhsMax =   1.69628200374916E-13  5.37726236335882E-01
 cg2d: Sum(rhs),rhsMax =   9.34669008856304E-14  5.37816820605879E-01
 cg2d: Sum(rhs),rhsMax =   5.94524429686771E-14  5.37900583294562E-01
 cg2d: Sum(rhs),rhsMax =  -1.27536869953815E-13  5.37980787737258E-01
 cg2d: Sum(rhs),rhsMax =  -1.01141317543352E-13  5.38056278362546E-01
 cg2d: Sum(rhs),rhsMax =  -3.50830475781549E-14  5.38126816542873E-01
 cg2d: Sum(rhs),rhsMax =  -5.76622083414691E-14  5.38192194451545E-01
 cg2d: Sum(rhs),rhsMax =  -1.92859617165198E-13  5.38252221131728E-01
 cg2d: Sum(rhs),rhsMax =  -1.71251901548430E-14  5.38306778522048E-01
 cg2d: Sum(rhs),rhsMax =  -7.04297731246584E-14  5.38355756547444E-01
 cg2d: Sum(rhs),rhsMax =   6.20753448643541E-14  5.38399081467496E-01
 cg2d: Sum(rhs),rhsMax =   7.97140131680862E-14  5.38436613751075E-01
 cg2d: Sum(rhs),rhsMax =   2.01560990120697E-13  5.38468804946014E-01
 cg2d: Sum(rhs),rhsMax =   2.56600296566489E-13  5.38495382087111E-01
 cg2d: Sum(rhs),rhsMax =  -2.76029199497430E-13  5.38516582378149E-01
 cg2d: Sum(rhs),rhsMax =   4.69485561538363E-14  5.38532642439954E-01
 cg2d: Sum(rhs),rhsMax =  -2.94361757191552E-13  5.38543822790237E-01
 cg2d: Sum(rhs),rhsMax =   6.36296570988293E-14  5.38550463901494E-01
 cg2d: Sum(rhs),rhsMax =   1.23262511309008E-13  5.38552966497205E-01
 cg2d: Sum(rhs),rhsMax =  -1.74860126378462E-15  5.38551719641918E-01
 cg2d: Sum(rhs),rhsMax =   3.95100618888478E-14  5.38547240663547E-01
 cg2d: Sum(rhs),rhsMax =  -1.56263890715991E-14  5.38540006635688E-01
 cg2d: Sum(rhs),rhsMax =   1.26315624626727E-13  5.38530779033518E-01
 cg2d: Sum(rhs),rhsMax =  -3.36258798583344E-14  5.38519813954640E-01
 cg2d: Sum(rhs),rhsMax =   2.17562079463107E-13  5.38507997745495E-01
 cg2d: Sum(rhs),rhsMax =   2.17048601314218E-14  5.38495706913215E-01
 cg2d: Sum(rhs),rhsMax =  -1.81799020282369E-14  5.38483943060911E-01
 cg2d: Sum(rhs),rhsMax =  -2.45636844198316E-14  5.38473045654759E-01
 cg2d: Sum(rhs),rhsMax =   1.46535561462713E-13  5.38463964921395E-01
 cg2d: Sum(rhs),rhsMax =  -7.01383395806943E-14  5.38457141798404E-01
 cg2d: Sum(rhs),rhsMax =   1.00960906301850E-13  5.38453373882651E-01
 cg2d: Sum(rhs),rhsMax =  -1.23095977855314E-14  5.38453196180950E-01
 cg2d: Sum(rhs),rhsMax =  -1.93067783982315E-13  5.38457233409409E-01
 cg2d: Sum(rhs),rhsMax =  -2.46747067222941E-14  5.38466015346233E-01
 cg2d: Sum(rhs),rhsMax =   1.05845887610201E-13  5.38480023162294E-01
 cg2d: Sum(rhs),rhsMax =  -1.83963955180388E-13  5.38499314393703E-01
 cg2d: Sum(rhs),rhsMax =  -3.22158966170605E-13  5.38525220469872E-01
 cg2d: Sum(rhs),rhsMax =   6.65578703262781E-14  5.38557099432509E-01
 cg2d: Sum(rhs),rhsMax =  -3.44585471268033E-14  5.38595507283004E-01
 cg2d: Sum(rhs),rhsMax =  -1.04360964314765E-13  5.38640459200383E-01
 cg2d: Sum(rhs),rhsMax =  -1.02418074021671E-14  5.38691923966640E-01
 cg2d: Sum(rhs),rhsMax =   9.92539384014890E-14  5.38749853325749E-01
 cg2d: Sum(rhs),rhsMax =  -1.31825106386430E-13  5.38814000116765E-01
 cg2d: Sum(rhs),rhsMax =   3.08086889333481E-15  5.38884183200422E-01
 cg2d: Sum(rhs),rhsMax =  -6.56280585431546E-14  5.38959923979931E-01
 cg2d: Sum(rhs),rhsMax =   1.35627620245771E-13  5.39040943071560E-01
 cg2d: Sum(rhs),rhsMax =   2.98011615385008E-13  5.39126700364077E-01
 cg2d: Sum(rhs),rhsMax =  -3.58324481197769E-14  5.39216609954921E-01
 cg2d: Sum(rhs),rhsMax =   9.57151025104963E-14  5.39310044882494E-01
 cg2d: Sum(rhs),rhsMax =   1.10619846616089E-13  5.39406261422299E-01
 cg2d: Sum(rhs),rhsMax =  -1.21708199074533E-14  5.39504487521732E-01
 cg2d: Sum(rhs),rhsMax =  -4.95437024738976E-14  5.39603992280759E-01
 cg2d: Sum(rhs),rhsMax =   5.00988139862102E-15  5.39703922212609E-01
 cg2d: Sum(rhs),rhsMax =  -9.06080765972206E-14  5.39803424098234E-01
 cg2d: Sum(rhs),rhsMax =   1.69586567011493E-14  5.39901655325397E-01
 cg2d: Sum(rhs),rhsMax =   2.59514632006130E-14  5.39997771991781E-01
 cg2d: Sum(rhs),rhsMax =  -4.09811073964761E-14  5.40090981141577E-01
 cg2d: Sum(rhs),rhsMax =   1.17766907337113E-13  5.40180398453739E-01
 cg2d: Sum(rhs),rhsMax =   1.34767197401686E-13  5.40265319700483E-01
 cg2d: Sum(rhs),rhsMax =  -2.88158386041459E-13  5.40344965854513E-01
 cg2d: Sum(rhs),rhsMax =  -2.69201327895985E-13  5.40418689706105E-01
 cg2d: Sum(rhs),rhsMax =  -1.13825615599694E-13  5.40484890213947E-01
 cg2d: Sum(rhs),rhsMax =  -5.10841369205650E-14  5.40544034717094E-01
 cg2d: Sum(rhs),rhsMax =  -4.22745172201644E-13  5.40595687517888E-01
 cg2d: Sum(rhs),rhsMax =   1.75900960464048E-13  5.40639516085026E-01
 cg2d: Sum(rhs),rhsMax =   3.97737398571962E-14  5.40675211789051E-01
 cg2d: Sum(rhs),rhsMax =   1.28896893158981E-13  5.40702635515125E-01
 cg2d: Sum(rhs),rhsMax =   5.28882493355809E-14  5.40721712195544E-01
 cg2d: Sum(rhs),rhsMax =   1.98771554771326E-13  5.40732456726602E-01
 cg2d: Sum(rhs),rhsMax =  -1.06414876910321E-13  5.40734979097200E-01
 cg2d: Sum(rhs),rhsMax =   1.46660461552983E-13  5.40729489482819E-01
 cg2d: Sum(rhs),rhsMax =   1.70863323489812E-13  5.40716292629823E-01
 cg2d: Sum(rhs),rhsMax =   1.81507586738405E-13  5.40695774908539E-01
 cg2d: Sum(rhs),rhsMax =   7.58837437331294E-14  5.40668362910328E-01
 cg2d: Sum(rhs),rhsMax =   1.33310029681866E-13  5.40634633330884E-01
 cg2d: Sum(rhs),rhsMax =   2.39225306231106E-13  5.40595207019353E-01
 cg2d: Sum(rhs),rhsMax =  -9.05109320825659E-14  5.40550710556479E-01
 cg2d: Sum(rhs),rhsMax =  -3.47361028829596E-14  5.40501961698687E-01
 cg2d: Sum(rhs),rhsMax =  -2.52436960224145E-14  5.40450763979570E-01
 cg2d: Sum(rhs),rhsMax =  -2.41126563160776E-13  5.40396106276731E-01
 cg2d: Sum(rhs),rhsMax =   2.46358489164322E-13  5.40340192920538E-01
 cg2d: Sum(rhs),rhsMax =  -2.93653990013354E-14  5.40282830652901E-01
 cg2d: Sum(rhs),rhsMax =  -1.97522553868623E-13  5.40224818242668E-01
 cg2d: Sum(rhs),rhsMax =  -1.40276679161389E-13  5.40166965850172E-01
 cg2d: Sum(rhs),rhsMax =   5.70932190413487E-14  5.40109957560640E-01
 cg2d: Sum(rhs),rhsMax =  -9.24399445878521E-14  5.40054448267521E-01
 cg2d: Sum(rhs),rhsMax =  -1.27300947561082E-13  5.40001036495186E-01
 cg2d: Sum(rhs),rhsMax =  -2.76861866765898E-14  5.39950275936683E-01
 cg2d: Sum(rhs),rhsMax =  -8.49736947472479E-14  5.39902636973849E-01
 cg2d: Sum(rhs),rhsMax =  -2.52797782707148E-13  5.39858542817063E-01
 cg2d: Sum(rhs),rhsMax =   1.37861944082829E-13  5.39818292018170E-01
 cg2d: Sum(rhs),rhsMax =   2.23016050071578E-14  5.39782109076196E-01
 cg2d: Sum(rhs),rhsMax =  -6.09096106884977E-14  5.39750141415104E-01
 cg2d: Sum(rhs),rhsMax =   3.82679998800484E-13  5.39722918535469E-01
 cg2d: Sum(rhs),rhsMax =   1.56721857713649E-13  5.39699957561754E-01
 cg2d: Sum(rhs),rhsMax =  -2.18422502307192E-13  5.39681115570052E-01
 cg2d: Sum(rhs),rhsMax =  -1.05956909912663E-13  5.39666164435317E-01
 cg2d: Sum(rhs),rhsMax =  -4.74204009393020E-14  5.39654777534906E-01
 cg2d: Sum(rhs),rhsMax =  -1.98854821498173E-13  5.39646566098073E-01
 cg2d: Sum(rhs),rhsMax =  -6.34214902817121E-15  5.39640925032004E-01
 cg2d: Sum(rhs),rhsMax =   1.15504827924440E-13  5.39637382381717E-01
 cg2d: Sum(rhs),rhsMax =   2.15799600411515E-14  5.39635315267706E-01
 cg2d: Sum(rhs),rhsMax =   4.51999548900517E-14  5.39634017723025E-01
 cg2d: Sum(rhs),rhsMax =  -6.35602681597902E-14  5.39632754245842E-01
 cg2d: Sum(rhs),rhsMax =  -3.96904731303493E-15  5.39630760177676E-01
 cg2d: Sum(rhs),rhsMax =   1.01724184631280E-13  5.39627257765384E-01
 cg2d: Sum(rhs),rhsMax =   1.88737914186277E-14  5.39621505938704E-01
 cg2d: Sum(rhs),rhsMax =  -1.01307850997046E-14  5.39612764934803E-01
 cg2d: Sum(rhs),rhsMax =   2.07167616395054E-13  5.39600302020654E-01
 cg2d: Sum(rhs),rhsMax =   1.53821400061815E-13  5.39583427596163E-01
 cg2d: Sum(rhs),rhsMax =   2.15771844835899E-13  5.39561520763877E-01
 cg2d: Sum(rhs),rhsMax =   1.20278786930328E-13  5.39533737328875E-01
 cg2d: Sum(rhs),rhsMax =  -2.93931545769510E-14  5.39499979737675E-01
 cg2d: Sum(rhs),rhsMax =  -1.45439216225896E-14  5.39459737175961E-01
 cg2d: Sum(rhs),rhsMax =   1.55014889813287E-14  5.39412682205881E-01
 cg2d: Sum(rhs),rhsMax =  -5.36376498772029E-14  5.39358626659185E-01
 cg2d: Sum(rhs),rhsMax =   1.39888101102770E-13  5.39297483155966E-01
 cg2d: Sum(rhs),rhsMax =  -2.83620349428304E-13  5.39229103293740E-01
 cg2d: Sum(rhs),rhsMax =   1.10328413072125E-14  5.39153927085426E-01
 cg2d: Sum(rhs),rhsMax =  -1.80258585835702E-13  5.39072104071017E-01
 cg2d: Sum(rhs),rhsMax =   5.40539835114373E-14  5.38984086977570E-01
 cg2d: Sum(rhs),rhsMax =  -1.26093580021802E-13  5.38890378302216E-01
 cg2d: Sum(rhs),rhsMax =   1.43912659567036E-13  5.38791648882230E-01
 cg2d: Sum(rhs),rhsMax =   4.91134910518554E-14  5.38688564110300E-01
 cg2d: Sum(rhs),rhsMax =  -2.85882428840978E-14  5.38581967128786E-01
 cg2d: Sum(rhs),rhsMax =   3.56797924538910E-14  5.38472735570753E-01
 cg2d: Sum(rhs),rhsMax =   2.23848717340047E-14  5.38361861962870E-01
 cg2d: Sum(rhs),rhsMax =  -1.70280456401883E-14  5.38250352279102E-01
 cg2d: Sum(rhs),rhsMax =   9.15101328047285E-14  5.38139278314907E-01
 cg2d: Sum(rhs),rhsMax =  -2.08305594995295E-14  5.38029677212555E-01
 cg2d: Sum(rhs),rhsMax =  -1.74818493015039E-13  5.37922624587220E-01
 cg2d: Sum(rhs),rhsMax =   2.14966933143046E-13  5.37819167255720E-01
 cg2d: Sum(rhs),rhsMax =   5.77732306439316E-14  5.37720314221967E-01
 cg2d: Sum(rhs),rhsMax =  -8.25728374564960E-15  5.37627028391160E-01
 cg2d: Sum(rhs),rhsMax =   1.16573417585641E-14  5.37539151374103E-01
 cg2d: Sum(rhs),rhsMax =   3.11584091861050E-13  5.37458526555260E-01
 cg2d: Sum(rhs),rhsMax =  -2.53547183248770E-14  5.37385910641864E-01
 cg2d: Sum(rhs),rhsMax =   4.19664303308309E-14  5.37321864850756E-01
 cg2d: Sum(rhs),rhsMax =   4.70609662350796E-13  5.37266834662032E-01
 cg2d: Sum(rhs),rhsMax =   8.15736367343334E-14  5.37221105236466E-01
 cg2d: Sum(rhs),rhsMax =  -1.11854969730985E-14  5.37184835110263E-01
 cg2d: Sum(rhs),rhsMax =  -1.97078464658773E-13  5.37158011979758E-01
 cg2d: Sum(rhs),rhsMax =  -3.12250225675825E-15  5.37140451971687E-01
 cg2d: Sum(rhs),rhsMax =  -8.78463968234655E-15  5.37131775343726E-01
 cg2d: Sum(rhs),rhsMax =   1.42857947693642E-13  5.37131529047073E-01
 cg2d: Sum(rhs),rhsMax =   6.32827124036339E-15  5.37139060180409E-01
 cg2d: Sum(rhs),rhsMax =  -1.90944482447719E-13  5.37153498104641E-01
 cg2d: Sum(rhs),rhsMax =   2.36505259820774E-13  5.37174042961989E-01
 cg2d: Sum(rhs),rhsMax =  -1.02154396053322E-13  5.37199688932506E-01
 cg2d: Sum(rhs),rhsMax =  -1.47645784487338E-13  5.37229298442598E-01
 cg2d: Sum(rhs),rhsMax =  -6.77791156533658E-14  5.37261665256920E-01
 cg2d: Sum(rhs),rhsMax =   3.91867094329257E-13  5.37295878872791E-01
 cg2d: Sum(rhs),rhsMax =  -6.59750032383499E-14  5.37330282808240E-01
 cg2d: Sum(rhs),rhsMax =  -4.44783099240453E-14  5.37363521651220E-01
 cg2d: Sum(rhs),rhsMax =  -1.56957780106382E-14  5.37394310013830E-01
 cg2d: Sum(rhs),rhsMax =  -8.49459391716323E-14  5.37421344174226E-01
 cg2d: Sum(rhs),rhsMax =  -1.07275299754406E-14  5.37443413085452E-01
 cg2d: Sum(rhs),rhsMax =  -1.90819582357449E-14  5.37459272935212E-01
 cg2d: Sum(rhs),rhsMax =   1.34392497130875E-13  5.37467856579521E-01
 cg2d: Sum(rhs),rhsMax =   2.41334729977893E-14  5.37468181859184E-01
 cg2d: Sum(rhs),rhsMax =  -1.15310538895130E-13  5.37459361210682E-01
 cg2d: Sum(rhs),rhsMax =   6.49896803039951E-14  5.37440680831178E-01
 cg2d: Sum(rhs),rhsMax =   3.49442697000768E-14  5.37411559704753E-01
 cg2d: Sum(rhs),rhsMax =  -6.78207490167893E-14  5.37371565088045E-01
 cg2d: Sum(rhs),rhsMax =  -1.06137321154165E-13  5.37320521512511E-01
 cg2d: Sum(rhs),rhsMax =  -1.86892168407837E-13  5.37258346693194E-01
 cg2d: Sum(rhs),rhsMax =  -4.96686025641679E-14  5.37185149534317E-01
 cg2d: Sum(rhs),rhsMax =  -1.20153886840058E-13  5.37101170440274E-01
 cg2d: Sum(rhs),rhsMax =   9.18293219243083E-14  5.37006864349405E-01
 cg2d: Sum(rhs),rhsMax =  -1.14214193658313E-13  5.36902825820405E-01
 cg2d: Sum(rhs),rhsMax =  -1.31422650540003E-14  5.36789812338081E-01
 cg2d: Sum(rhs),rhsMax =  -2.19144147273198E-13  5.36668713989436E-01
 cg2d: Sum(rhs),rhsMax =  -1.72695191480443E-13  5.36540495967244E-01
 cg2d: Sum(rhs),rhsMax =  -7.61196661258623E-14  5.36406232741488E-01
 cg2d: Sum(rhs),rhsMax =  -2.90045765183322E-14  5.36267044816500E-01
 cg2d: Sum(rhs),rhsMax =   1.80022663442969E-13  5.36124111887500E-01
 cg2d: Sum(rhs),rhsMax =  -3.83026943495679E-14  5.35978674820202E-01
 cg2d: Sum(rhs),rhsMax =  -9.33558785831679E-14  5.35831905061549E-01
 cg2d: Sum(rhs),rhsMax =  -8.88872309090516E-14  5.35686146862091E-01
 cg2d: Sum(rhs),rhsMax =  -2.23154827949656E-14  5.35541449359196E-01
 cg2d: Sum(rhs),rhsMax =  -1.33462685347752E-13  5.35398800687829E-01
 cg2d: Sum(rhs),rhsMax =   2.08569272963643E-13  5.35259204045817E-01
 cg2d: Sum(rhs),rhsMax =  -5.68989300120393E-14  5.35123531563826E-01
 cg2d: Sum(rhs),rhsMax =   8.49875725350557E-14  5.34992534226845E-01
 cg2d: Sum(rhs),rhsMax =  -7.43155537108464E-14  5.34866815571521E-01
 cg2d: Sum(rhs),rhsMax =  -2.16202056257941E-13  5.34746814021509E-01
 cg2d: Sum(rhs),rhsMax =  -1.72944991660984E-13  5.34632793787119E-01
 cg2d: Sum(rhs),rhsMax =   2.41473507855972E-13  5.34524673945495E-01
 cg2d: Sum(rhs),rhsMax =   3.76088049591772E-15  5.34422772742690E-01
 cg2d: Sum(rhs),rhsMax =  -4.63795668537159E-14  5.34326788919617E-01
 cg2d: Sum(rhs),rhsMax =  -6.74738043215939E-14  5.34236354734621E-01
 cg2d: Sum(rhs),rhsMax =  -1.14144804719274E-13  5.34150962034159E-01
 cg2d: Sum(rhs),rhsMax =   2.73392419813945E-13  5.34069977653500E-01
 cg2d: Sum(rhs),rhsMax =  -1.22291066162461E-13  5.33992632589922E-01
 cg2d: Sum(rhs),rhsMax =   2.31342722756267E-14  5.33918058006931E-01
 cg2d: Sum(rhs),rhsMax =   1.27772792346548E-13  5.33845260636866E-01
 cg2d: Sum(rhs),rhsMax =   1.07414077632484E-13  5.33773227787620E-01
 cg2d: Sum(rhs),rhsMax =  -7.22893966909055E-14  5.33700892403299E-01
 cg2d: Sum(rhs),rhsMax =  -3.59018370588160E-14  5.33627143408048E-01
 cg2d: Sum(rhs),rhsMax =   3.77198272616397E-14  5.33550892756016E-01
 cg2d: Sum(rhs),rhsMax =   2.70533595525535E-13  5.33471045041414E-01
 cg2d: Sum(rhs),rhsMax =  -3.11695114163513E-14  5.33386527042295E-01
 cg2d: Sum(rhs),rhsMax =   1.37806432931598E-13  5.33296370067659E-01
 cg2d: Sum(rhs),rhsMax =   8.34055047249649E-15  5.33199682862741E-01
 cg2d: Sum(rhs),rhsMax =  -4.11337630623620E-14  5.33095677352233E-01
 cg2d: Sum(rhs),rhsMax =  -1.86656246015104E-14  5.32983704854046E-01
 cg2d: Sum(rhs),rhsMax =  -2.00423011520456E-13  5.32863232493789E-01
 cg2d: Sum(rhs),rhsMax =  -3.30152571947906E-14  5.32733897216685E-01
 cg2d: Sum(rhs),rhsMax =   1.70294334189691E-13  5.32595482876381E-01
 cg2d: Sum(rhs),rhsMax =   2.15646944745629E-13  5.32447968202799E-01
 cg2d: Sum(rhs),rhsMax =  -8.11989364635224E-14  5.32291472510126E-01
 cg2d: Sum(rhs),rhsMax =   1.04929953614885E-13  5.32126344894731E-01
 cg2d: Sum(rhs),rhsMax =   1.48075995909380E-13  5.31954441847788E-01
 cg2d: Sum(rhs),rhsMax =   2.25791607633141E-13  5.31775003433363E-01
 cg2d: Sum(rhs),rhsMax =   4.41313652288500E-14  5.31588793284934E-01
 cg2d: Sum(rhs),rhsMax =   7.90201237776955E-14  5.31396825653324E-01
 cg2d: Sum(rhs),rhsMax =  -1.53904666788662E-13  5.31200686716696E-01
 cg2d: Sum(rhs),rhsMax =   1.03861363953683E-13  5.31001178483980E-01
 cg2d: Sum(rhs),rhsMax =   6.02989880249538E-14  5.30799576197189E-01
 cg2d: Sum(rhs),rhsMax =   3.60267371490863E-14  5.30597255514996E-01
 cg2d: Sum(rhs),rhsMax =  -1.31297750449733E-13  5.30395633911165E-01
 cg2d: Sum(rhs),rhsMax =  -3.13221670822372E-14  5.30196217245144E-01
 cg2d: Sum(rhs),rhsMax =  -2.08999484385686E-13  5.30000467812719E-01
 cg2d: Sum(rhs),rhsMax =  -2.57988075347271E-14  5.29809780249255E-01
 cg2d: Sum(rhs),rhsMax =  -4.41591208044656E-14  5.29625605766315E-01
 cg2d: Sum(rhs),rhsMax =   1.29563026973756E-13  5.29449235162168E-01
 cg2d: Sum(rhs),rhsMax =   2.69367861349679E-14  5.29281896721555E-01
 cg2d: Sum(rhs),rhsMax =  -1.04055652982993E-13  5.29124489545756E-01
 cg2d: Sum(rhs),rhsMax =  -9.31060784026272E-14  5.28977996844894E-01
 cg2d: Sum(rhs),rhsMax =  -7.96029908656237E-14  5.28843241858097E-01
 cg2d: Sum(rhs),rhsMax =  -1.22901688826005E-13  5.28720947059485E-01
 cg2d: Sum(rhs),rhsMax =  -1.65562008547226E-14  5.28611615337977E-01
 cg2d: Sum(rhs),rhsMax =  -5.34433608478935E-14  5.28515284782333E-01
 cg2d: Sum(rhs),rhsMax =  -9.48130463029884E-14  5.28432145033954E-01
 cg2d: Sum(rhs),rhsMax =   1.46035961101632E-13  5.28362611423596E-01
 cg2d: Sum(rhs),rhsMax =   2.42028619368284E-13  5.28306206654496E-01
 cg2d: Sum(rhs),rhsMax =   4.68236560635660E-14  5.28261430194249E-01
 cg2d: Sum(rhs),rhsMax =   2.05391259555654E-14  5.28229514489472E-01
 cg2d: Sum(rhs),rhsMax =   6.36574126744449E-14  5.28209364832857E-01
 cg2d: Sum(rhs),rhsMax =   1.51184620378331E-13  5.28200082814001E-01
 cg2d: Sum(rhs),rhsMax =  -2.44831932505463E-13  5.28200673859363E-01
 cg2d: Sum(rhs),rhsMax =   5.05151476204446E-15  5.28209999567964E-01
 cg2d: Sum(rhs),rhsMax =  -1.46410661372443E-14  5.28226814630951E-01
 cg2d: Sum(rhs),rhsMax =  -1.46979650672563E-13  5.28249788157798E-01
 cg2d: Sum(rhs),rhsMax =  -4.16888745746746E-14  5.28277505033670E-01
 cg2d: Sum(rhs),rhsMax =  -1.04166675285455E-13  5.28308491866627E-01
 cg2d: Sum(rhs),rhsMax =  -1.41553435639707E-15  5.28341204934350E-01
 cg2d: Sum(rhs),rhsMax =  -1.21902488103842E-13  5.28374055078867E-01
 cg2d: Sum(rhs),rhsMax =   2.96984659087229E-14  5.28405567320661E-01
 cg2d: Sum(rhs),rhsMax =   1.38833389229376E-13  5.28434200921720E-01
 cg2d: Sum(rhs),rhsMax =  -6.09651218397289E-14  5.28458460896088E-01
 cg2d: Sum(rhs),rhsMax =  -1.42066913788597E-13  5.28476263510051E-01
 cg2d: Sum(rhs),rhsMax =  -5.20555820671120E-14  5.28487810941222E-01
 cg2d: Sum(rhs),rhsMax =  -1.52447499068842E-13  5.28490648865993E-01
 cg2d: Sum(rhs),rhsMax =  -2.19199658424429E-13  5.28483771382276E-01
 cg2d: Sum(rhs),rhsMax =   1.27217680834235E-13  5.28466176953888E-01
 cg2d: Sum(rhs),rhsMax =   1.76386683037322E-14  5.28436849666858E-01
 cg2d: Sum(rhs),rhsMax =   2.43513542663720E-13  5.28394756742487E-01
 cg2d: Sum(rhs),rhsMax =   8.08519917683270E-14  5.28339742027222E-01
 cg2d: Sum(rhs),rhsMax =  -1.63286051346745E-13  5.28271275150101E-01
 cg2d: Sum(rhs),rhsMax =  -1.74860126378462E-15  5.28188773984468E-01
 cg2d: Sum(rhs),rhsMax =  -5.75095526755831E-14  5.28092215519312E-01
 cg2d: Sum(rhs),rhsMax =   2.29774532733984E-13  5.27981763600773E-01
 cg2d: Sum(rhs),rhsMax =   2.81968892679174E-13  5.27857567496764E-01
 cg2d: Sum(rhs),rhsMax =   1.15615850226902E-13  5.27719495953138E-01
 cg2d: Sum(rhs),rhsMax =   1.79925518928314E-13  5.27568181799117E-01
 cg2d: Sum(rhs),rhsMax =   1.37306832570516E-13  5.27404294864637E-01
 cg2d: Sum(rhs),rhsMax =  -2.79221090693227E-14  5.27228680635388E-01
 cg2d: Sum(rhs),rhsMax =   1.17822418488345E-14  5.27042301227274E-01
 cg2d: Sum(rhs),rhsMax =   8.40577607519322E-14  5.26846309294536E-01
 cg2d: Sum(rhs),rhsMax =  -5.53723733531797E-14  5.26641729113374E-01
 cg2d: Sum(rhs),rhsMax =   2.74349987172684E-13  5.26429742585092E-01
 cg2d: Sum(rhs),rhsMax =   9.69641034131996E-14  5.26211626682896E-01
 cg2d: Sum(rhs),rhsMax =  -3.71799813159157E-13  5.25989179982643E-01
 cg2d: Sum(rhs),rhsMax =  -5.55111512312578E-14  5.25763878009195E-01
 cg2d: Sum(rhs),rhsMax =   1.06137321154165E-13  5.25537311184857E-01
 cg2d: Sum(rhs),rhsMax =  -1.56416546381877E-13  5.25310884684878E-01
 cg2d: Sum(rhs),rhsMax =  -1.58359436674971E-13  5.25086011487316E-01
 cg2d: Sum(rhs),rhsMax =   5.05151476204446E-14  5.24863831299180E-01
 cg2d: Sum(rhs),rhsMax =  -2.34312569347139E-13  5.24645551443829E-01
 cg2d: Sum(rhs),rhsMax =  -5.85642645489770E-14  5.24432383399763E-01
 cg2d: Sum(rhs),rhsMax =  -2.09526840322383E-13  5.24225415909778E-01
 cg2d: Sum(rhs),rhsMax =  -2.21087037566292E-13  5.24025635960980E-01
 cg2d: Sum(rhs),rhsMax =  -9.92400606136812E-14  5.23833823615377E-01
 cg2d: Sum(rhs),rhsMax =   5.40956168748608E-14  5.23650597494487E-01
 cg2d: Sum(rhs),rhsMax =   1.24941723633754E-13  5.23476590229437E-01
 cg2d: Sum(rhs),rhsMax =   2.55906407176099E-13  5.23313111177654E-01
 cg2d: Sum(rhs),rhsMax =  -2.14467332781965E-13  5.23159593934351E-01
 cg2d: Sum(rhs),rhsMax =   1.36279876272738E-14  5.23014845752618E-01
 cg2d: Sum(rhs),rhsMax =  -3.96210841913103E-14  5.22878744089412E-01
 cg2d: Sum(rhs),rhsMax =  -7.48290318597356E-14  5.22751049625102E-01
 cg2d: Sum(rhs),rhsMax =  -6.61137811164281E-14  5.22631239025261E-01
 cg2d: Sum(rhs),rhsMax =   4.82808237833865E-14  5.22518735182132E-01
 cg2d: Sum(rhs),rhsMax =   8.23924262149944E-14  5.22412819881997E-01
 cg2d: Sum(rhs),rhsMax =   5.48727729920984E-14  5.22312672994009E-01
 cg2d: Sum(rhs),rhsMax =  -1.52655665885959E-15  5.22217379694673E-01
 cg2d: Sum(rhs),rhsMax =   6.10483885665758E-14  5.22125926698517E-01
 cg2d: Sum(rhs),rhsMax =   1.21402887742761E-13  5.22037189795667E-01
 cg2d: Sum(rhs),rhsMax =   5.27911048209262E-14  5.21950036887335E-01
 cg2d: Sum(rhs),rhsMax =   8.07270916780567E-14  5.21863255418946E-01
 cg2d: Sum(rhs),rhsMax =  -8.56398285620230E-14  5.21775669535397E-01
 cg2d: Sum(rhs),rhsMax =  -1.76011982766511E-13  5.21686222380771E-01
 cg2d: Sum(rhs),rhsMax =   7.31498195349900E-14  5.21593823866625E-01
 cg2d: Sum(rhs),rhsMax =  -9.24815779512755E-14  5.21497421196540E-01
 cg2d: Sum(rhs),rhsMax =  -1.33726363316100E-13  5.21396128039520E-01
 cg2d: Sum(rhs),rhsMax =  -8.33222379981180E-14  5.21289013001771E-01
 cg2d: Sum(rhs),rhsMax =   1.93400850889702E-13  5.21175256473273E-01
 cg2d: Sum(rhs),rhsMax =  -3.20604653936130E-13  5.21054203768018E-01
 cg2d: Sum(rhs),rhsMax =  -1.18155485395732E-13  5.20925330376954E-01
 cg2d: Sum(rhs),rhsMax =  -3.38756800388751E-14  5.20788284006442E-01
 cg2d: Sum(rhs),rhsMax =  -6.67521593555875E-15  5.20642720851080E-01
 cg2d: Sum(rhs),rhsMax =  -3.88578058618805E-15  5.20488106966817E-01
 cg2d: Sum(rhs),rhsMax =  -9.22178999829271E-14  5.20325244078218E-01
 cg2d: Sum(rhs),rhsMax =   7.71605002114484E-14  5.20154439365271E-01
 cg2d: Sum(rhs),rhsMax =   2.89351875792931E-14  5.19977243992523E-01
 cg2d: Sum(rhs),rhsMax =  -5.75928194024300E-14  5.19793285179945E-01
 cg2d: Sum(rhs),rhsMax =   1.19446119661859E-13  5.19603282923457E-01
 cg2d: Sum(rhs),rhsMax =   9.13574771388426E-14  5.19408178180283E-01
 cg2d: Sum(rhs),rhsMax =   1.42150180515443E-13  5.19208966988015E-01
 cg2d: Sum(rhs),rhsMax =  -1.28064225890512E-13  5.19006741298003E-01
 cg2d: Sum(rhs),rhsMax =  -1.40554234917545E-13  5.18802734023724E-01
 cg2d: Sum(rhs),rhsMax =   7.48151540719277E-14  5.18598239342743E-01
 cg2d: Sum(rhs),rhsMax =   7.05685510027365E-14  5.18394590618167E-01
 cg2d: Sum(rhs),rhsMax =   3.27932125898656E-14  5.18193094459265E-01
 cg2d: Sum(rhs),rhsMax =   3.95378174644634E-14  5.17995068954853E-01
 cg2d: Sum(rhs),rhsMax =   1.28785870856518E-13  5.17801830030869E-01
 cg2d: Sum(rhs),rhsMax =   1.37764799568174E-13  5.17614541343106E-01
 cg2d: Sum(rhs),rhsMax =  -4.71150896075301E-14  5.17434410127091E-01
 cg2d: Sum(rhs),rhsMax =  -1.96120897300034E-13  5.17262583545488E-01
 cg2d: Sum(rhs),rhsMax =  -3.23199800256191E-13  5.17099940388137E-01
 cg2d: Sum(rhs),rhsMax =  -1.78884684842728E-14  5.16947244572184E-01
 cg2d: Sum(rhs),rhsMax =  -2.54254950426969E-13  5.16805081554826E-01
 cg2d: Sum(rhs),rhsMax =   1.48145384848419E-13  5.16673849459499E-01
 cg2d: Sum(rhs),rhsMax =   1.45092271530700E-13  5.16553777416196E-01
 cg2d: Sum(rhs),rhsMax =  -2.81399903379054E-13  5.16444916678493E-01
 cg2d: Sum(rhs),rhsMax =  -1.75873204888433E-13  5.16346058225842E-01
 cg2d: Sum(rhs),rhsMax =  -2.12233008944906E-13  5.16257922165932E-01
 cg2d: Sum(rhs),rhsMax =   1.87919124705616E-13  5.16180108226589E-01
 cg2d: Sum(rhs),rhsMax =   1.97300509263698E-13  5.16111944386460E-01
 cg2d: Sum(rhs),rhsMax =   1.00003338943111E-13  5.16052555211188E-01
 cg2d: Sum(rhs),rhsMax =   7.64666108210577E-14  5.16001011501962E-01
 cg2d: Sum(rhs),rhsMax =   1.87933002493423E-13  5.15956211292065E-01
 cg2d: Sum(rhs),rhsMax =  -9.13713549266504E-14  5.15916945153304E-01
 cg2d: Sum(rhs),rhsMax =   1.63952185161520E-13  5.15881912635539E-01
 cg2d: Sum(rhs),rhsMax =   5.93552984540224E-14  5.15849753741338E-01
 cg2d: Sum(rhs),rhsMax =   1.06373243546898E-13  5.15819057329837E-01
 cg2d: Sum(rhs),rhsMax =   1.58206781009085E-13  5.15788425062073E-01
 cg2d: Sum(rhs),rhsMax =   1.54598556179053E-13  5.15756407982317E-01
 cg2d: Sum(rhs),rhsMax =  -7.85621567800376E-14  5.15721609699264E-01
 cg2d: Sum(rhs),rhsMax =  -1.31172850359462E-13  5.15682643511262E-01
 cg2d: Sum(rhs),rhsMax =   1.95121696577871E-14  5.15638228250250E-01
 cg2d: Sum(rhs),rhsMax =  -2.68549071869018E-13  5.15587161700838E-01
 cg2d: Sum(rhs),rhsMax =  -4.41036096532343E-14  5.15528400787422E-01
 cg2d: Sum(rhs),rhsMax =  -1.24067423001861E-14  5.15460969188281E-01
 cg2d: Sum(rhs),rhsMax =  -9.95870053088765E-14  5.15381474488624E-01
 cg2d: Sum(rhs),rhsMax =  -3.69565489322099E-14  5.15292083861385E-01
 cg2d: Sum(rhs),rhsMax =   3.31221161609108E-13  5.15192161933860E-01
 cg2d: Sum(rhs),rhsMax =  -1.00947028514042E-13  5.15081410432505E-01
 cg2d: Sum(rhs),rhsMax =  -2.70297673132802E-13  5.14959719405945E-01
 cg2d: Sum(rhs),rhsMax =   1.74513181683267E-13  5.14827137958451E-01
 cg2d: Sum(rhs),rhsMax =   6.99301727635770E-14  5.14683848910984E-01
 cg2d: Sum(rhs),rhsMax =   7.80486786311485E-14  5.14530254965086E-01
 cg2d: Sum(rhs),rhsMax =  -1.33157374015980E-13  5.14366943540405E-01
 cg2d: Sum(rhs),rhsMax =  -3.90243393155743E-14  5.14194578179362E-01
 cg2d: Sum(rhs),rhsMax =   6.42819131257966E-14  5.14013931623855E-01
 cg2d: Sum(rhs),rhsMax =   7.72160113626796E-14  5.13826104468340E-01
 cg2d: Sum(rhs),rhsMax =   1.16046061648944E-13  5.13631543815977E-01
 cg2d: Sum(rhs),rhsMax =  -1.99534833100756E-13  5.13431673215036E-01
 cg2d: Sum(rhs),rhsMax =  -2.87894708073111E-13  5.13227413194852E-01
 cg2d: Sum(rhs),rhsMax =   8.64863736182997E-14  5.13019840287938E-01
 cg2d: Sum(rhs),rhsMax =   9.42718125784836E-14  5.12810077393228E-01
 cg2d: Sum(rhs),rhsMax =   1.83644766060809E-13  5.12599145519825E-01
 cg2d: Sum(rhs),rhsMax =  -2.40904518555851E-13  5.12388073667662E-01
 cg2d: Sum(rhs),rhsMax =   1.36085587243429E-13  5.12177848756269E-01
 cg2d: Sum(rhs),rhsMax =   2.08860706507608E-13  5.11969273716377E-01
 cg2d: Sum(rhs),rhsMax =   1.14089293568043E-13  5.11763120126839E-01
 cg2d: Sum(rhs),rhsMax =  -1.97314387051506E-13  5.11560076905208E-01
 cg2d: Sum(rhs),rhsMax =  -6.56003029675389E-14  5.11360714730669E-01
 cg2d: Sum(rhs),rhsMax =   7.89646126264643E-14  5.11165503702445E-01
 cg2d: Sum(rhs),rhsMax =   2.56267229659102E-13  5.10974784079544E-01
 cg2d: Sum(rhs),rhsMax =   9.06913433240675E-14  5.10788860163072E-01
 cg2d: Sum(rhs),rhsMax =  -2.47371567674293E-13  5.10607831712664E-01
 cg2d: Sum(rhs),rhsMax =   3.11070613712161E-13  5.10431698815064E-01
 cg2d: Sum(rhs),rhsMax =   2.34534613952064E-15  5.10260344670263E-01
 cg2d: Sum(rhs),rhsMax =  -1.92762472650543E-14  5.10093557994041E-01
 cg2d: Sum(rhs),rhsMax =   1.60274571392449E-13  5.09931009928760E-01
 cg2d: Sum(rhs),rhsMax =   7.69107000309077E-14  5.09772445257332E-01
 cg2d: Sum(rhs),rhsMax =  -1.88613014096006E-13  5.09617369709820E-01
 cg2d: Sum(rhs),rhsMax =   2.56558663203066E-13  5.09465281304320E-01
 cg2d: Sum(rhs),rhsMax =   4.96963581397836E-14  5.09315647316083E-01
 cg2d: Sum(rhs),rhsMax =   7.02493618831568E-14  5.09167826753734E-01
 cg2d: Sum(rhs),rhsMax =  -3.77489706160361E-13  5.09021212202540E-01
 cg2d: Sum(rhs),rhsMax =  -9.66726698692355E-14  5.08875295652602E-01
 cg2d: Sum(rhs),rhsMax =   3.56242813026597E-14  5.08729550943256E-01
 cg2d: Sum(rhs),rhsMax =   2.25972018874643E-13  5.08583487755201E-01
 cg2d: Sum(rhs),rhsMax =   3.10806935743813E-13  5.08436675444334E-01
 cg2d: Sum(rhs),rhsMax =   5.68295410730002E-14  5.08288797809989E-01
 cg2d: Sum(rhs),rhsMax =  -6.48231468503013E-14  5.08139516561788E-01
 cg2d: Sum(rhs),rhsMax =   2.77555756156289E-17  5.07988567993945E-01
 cg2d: Sum(rhs),rhsMax =  -5.68711744364236E-14  5.07835781062083E-01
 cg2d: Sum(rhs),rhsMax =  -1.94955163124177E-13  5.07681040759435E-01
 cg2d: Sum(rhs),rhsMax =  -3.40422134925689E-14  5.07524307084756E-01
 cg2d: Sum(rhs),rhsMax =  -2.39197550655490E-13  5.07365623204042E-01
 cg2d: Sum(rhs),rhsMax =  -2.58223997740004E-13  5.07205027513633E-01
 cg2d: Sum(rhs),rhsMax =   1.61953783717195E-14  5.07042755246128E-01
 cg2d: Sum(rhs),rhsMax =  -6.34631236451355E-14  5.06878981316071E-01
 cg2d: Sum(rhs),rhsMax =   4.17305079380981E-14  5.06713842157491E-01
 cg2d: Sum(rhs),rhsMax =  -2.78110867668602E-14  5.06547709499005E-01
 cg2d: Sum(rhs),rhsMax =   1.50573997714787E-13  5.06380897256890E-01
 cg2d: Sum(rhs),rhsMax =   1.26385013565766E-13  5.06213804099162E-01
 cg2d: Sum(rhs),rhsMax =  -1.13742348872847E-13  5.06046815336970E-01
 cg2d: Sum(rhs),rhsMax =   1.02140518265514E-14  5.05880349041183E-01
 cg2d: Sum(rhs),rhsMax =  -1.08829611988881E-13  5.05714793734226E-01
 cg2d: Sum(rhs),rhsMax =  -2.00409133732649E-13  5.05550555652219E-01
 cg2d: Sum(rhs),rhsMax =  -4.97657470788226E-14  5.05387990048053E-01
 cg2d: Sum(rhs),rhsMax =  -2.84494650060196E-15  5.05227503640883E-01
 cg2d: Sum(rhs),rhsMax =  -1.01724184631280E-13  5.05069411792628E-01
 cg2d: Sum(rhs),rhsMax =  -3.06366043645312E-13  5.04914089903136E-01
 cg2d: Sum(rhs),rhsMax =  -2.93792767891432E-14  5.04761785139993E-01
 cg2d: Sum(rhs),rhsMax =  -1.52391987917611E-13  5.04612754884397E-01
 cg2d: Sum(rhs),rhsMax =  -2.28511654043473E-13  5.04467187830175E-01
 cg2d: Sum(rhs),rhsMax =   2.74086309204336E-14  5.04325340001303E-01
 cg2d: Sum(rhs),rhsMax =  -6.46843689722232E-14  5.04187300724835E-01
 cg2d: Sum(rhs),rhsMax =   1.78732029176842E-13  5.04053222449267E-01
 cg2d: Sum(rhs),rhsMax =   1.74096848049032E-13  5.03923205339337E-01
 cg2d: Sum(rhs),rhsMax =   4.83779682980412E-14  5.03797265257365E-01
 cg2d: Sum(rhs),rhsMax =  -2.34562369527680E-13  5.03675413043601E-01
 cg2d: Sum(rhs),rhsMax =   2.25236496120829E-13  5.03557628327920E-01
 cg2d: Sum(rhs),rhsMax =   1.03278496865755E-13  5.03443873992594E-01
 cg2d: Sum(rhs),rhsMax =   1.81979431523871E-13  5.03334099824374E-01
 cg2d: Sum(rhs),rhsMax =  -6.62941923579297E-14  5.03228245863754E-01
 cg2d: Sum(rhs),rhsMax =  -1.63674629405364E-13  5.03126214394199E-01
 cg2d: Sum(rhs),rhsMax =  -2.33937869076328E-13  5.03027945767869E-01
 cg2d: Sum(rhs),rhsMax =   1.04083408558608E-14  5.02933366210332E-01
 cg2d: Sum(rhs),rhsMax =   6.44762021551060E-14  5.02842310392276E-01
 cg2d: Sum(rhs),rhsMax =  -1.52114432161454E-13  5.02754699024776E-01
 cg2d: Sum(rhs),rhsMax =  -7.51204654036997E-14  5.02670457446658E-01
 cg2d: Sum(rhs),rhsMax =  -6.04100103274163E-14  5.02589552344567E-01
 cg2d: Sum(rhs),rhsMax =   8.38218383591993E-14  5.02511875104617E-01
 cg2d: Sum(rhs),rhsMax =  -3.30013794069828E-14  5.02437337100944E-01
 cg2d: Sum(rhs),rhsMax =  -1.17017506795491E-13  5.02365846008005E-01
 cg2d: Sum(rhs),rhsMax =   1.22471477403963E-13  5.02297266777498E-01
 cg2d: Sum(rhs),rhsMax =  -1.83519865970538E-13  5.02231457329676E-01
 cg2d: Sum(rhs),rhsMax =   1.24664167877597E-13  5.02168257101711E-01
 cg2d: Sum(rhs),rhsMax =  -2.57696641803307E-13  5.02107449791461E-01
 cg2d: Sum(rhs),rhsMax =   3.65957264492067E-14  5.02048734135433E-01
 cg2d: Sum(rhs),rhsMax =  -2.72185052274665E-13  5.01991787649726E-01
 cg2d: Sum(rhs),rhsMax =  -5.67046409827299E-14  5.01936245626435E-01
 cg2d: Sum(rhs),rhsMax =   1.77358128183869E-14  5.01880573875258E-01
 cg2d: Sum(rhs),rhsMax =  -5.06539254985228E-15  5.01828090678193E-01
 cg2d: Sum(rhs),rhsMax =   1.06081810002934E-13  5.01775740896708E-01
 cg2d: Sum(rhs),rhsMax =   3.56104035148519E-14  5.01722978765016E-01
 cg2d: Sum(rhs),rhsMax =   8.65973959207622E-14  5.01669118926649E-01
 cg2d: Sum(rhs),rhsMax =   1.68531855138099E-13  5.01613712407842E-01
 cg2d: Sum(rhs),rhsMax =  -5.33878496966622E-14  5.01556056121191E-01
 cg2d: Sum(rhs),rhsMax =  -2.01921812603700E-14  5.01495506833280E-01
 cg2d: Sum(rhs),rhsMax =  -1.90528148813485E-13  5.01431376443724E-01
 cg2d: Sum(rhs),rhsMax =   1.23762111670089E-13  5.01362973323952E-01
 cg2d: Sum(rhs),rhsMax =   2.40391040406962E-13  5.01289614566378E-01
 cg2d: Sum(rhs),rhsMax =   3.02535774210355E-15  5.01210615520258E-01
 cg2d: Sum(rhs),rhsMax =  -1.32158173293817E-13  5.01125334177395E-01
 cg2d: Sum(rhs),rhsMax =  -8.64308624670684E-14  5.01033125524180E-01
 cg2d: Sum(rhs),rhsMax =   3.80251385934116E-14  5.00933459525700E-01
 cg2d: Sum(rhs),rhsMax =   4.96686025641679E-14  5.00825834781051E-01
 cg2d: Sum(rhs),rhsMax =   2.93542967710891E-13  5.00709810875831E-01
 cg2d: Sum(rhs),rhsMax =  -1.49338874599891E-13  5.00585013714147E-01
 cg2d: Sum(rhs),rhsMax =  -3.24823501429705E-13  5.00451181457458E-01
 cg2d: Sum(rhs),rhsMax =  -2.67577626722471E-13  5.00308136551889E-01
 cg2d: Sum(rhs),rhsMax =   2.23293605827735E-14  5.00155776115015E-01
 cg2d: Sum(rhs),rhsMax =   4.21329637845247E-14  4.99994134837846E-01
 cg2d: Sum(rhs),rhsMax =   5.22221155208058E-14  4.99823265249798E-01
 cg2d: Sum(rhs),rhsMax =  -1.77885484120566E-13  4.99643214319245E-01
 cg2d: Sum(rhs),rhsMax =  -1.29271593429792E-13  4.99454554772819E-01
 cg2d: Sum(rhs),rhsMax =   1.11591291762636E-13  4.99257812093658E-01
 cg2d: Sum(rhs),rhsMax =   7.76323449969141E-14  4.99053483433213E-01
 cg2d: Sum(rhs),rhsMax =  -5.75928194024300E-14  4.98842071774165E-01
 cg2d: Sum(rhs),rhsMax =  -7.02077285197333E-14  4.98624547568118E-01
 cg2d: Sum(rhs),rhsMax =   2.80053757961696E-14  4.98401623075083E-01
 cg2d: Sum(rhs),rhsMax =   7.76739783603375E-14  4.98174179663148E-01
 cg2d: Sum(rhs),rhsMax =  -2.73531197692023E-14  4.97943146435731E-01
 cg2d: Sum(rhs),rhsMax =   1.04583008919690E-13  4.97709513346737E-01
 cg2d: Sum(rhs),rhsMax =   1.21513910045223E-13  4.97474296073670E-01
 cg2d: Sum(rhs),rhsMax =   8.67361737988404E-14  4.97238567435886E-01
 cg2d: Sum(rhs),rhsMax =  -2.58043586498502E-13  4.97003382221303E-01
 cg2d: Sum(rhs),rhsMax =  -6.31855678889792E-14  4.96769788590358E-01
 cg2d: Sum(rhs),rhsMax =  -1.68295932745366E-13  4.96538844916042E-01
 cg2d: Sum(rhs),rhsMax =   9.65477697789652E-14  4.96311516938871E-01
 cg2d: Sum(rhs),rhsMax =  -9.90457715843718E-14  4.96088792635099E-01
 cg2d: Sum(rhs),rhsMax =  -2.25930385511219E-14  4.95871551904362E-01
 cg2d: Sum(rhs),rhsMax =  -2.76029199497430E-14  4.95660632243769E-01
 cg2d: Sum(rhs),rhsMax =   8.06299471634020E-14  4.95456746743071E-01
 cg2d: Sum(rhs),rhsMax =  -6.57252030578093E-14  4.95260527131470E-01
 cg2d: Sum(rhs),rhsMax =  -8.88178419700125E-14  4.95072511629118E-01
 cg2d: Sum(rhs),rhsMax =   1.74735226288192E-13  4.94893136732270E-01
 cg2d: Sum(rhs),rhsMax =   3.22825099985380E-13  4.94722703356653E-01
 cg2d: Sum(rhs),rhsMax =  -1.53835277849623E-13  4.94561392770543E-01
 cg2d: Sum(rhs),rhsMax =  -8.04911692853238E-16  4.94409276719104E-01
 cg2d: Sum(rhs),rhsMax =   1.11730069640714E-13  4.94266466700636E-01
 cg2d: Sum(rhs),rhsMax =  -2.31120678151342E-13  4.94132349882490E-01
 cg2d: Sum(rhs),rhsMax =   5.88418203051333E-15  4.94007268031367E-01
 cg2d: Sum(rhs),rhsMax =  -3.09072212267836E-13  4.93890561319105E-01
 cg2d: Sum(rhs),rhsMax =  -2.97289970419001E-13  4.93781890035883E-01
 cg2d: Sum(rhs),rhsMax =  -4.06619182768964E-14  4.93680747975533E-01
 cg2d: Sum(rhs),rhsMax =  -4.85722573273506E-16  4.93586549706027E-01
 cg2d: Sum(rhs),rhsMax =  -8.06160693755942E-14  4.93498655361506E-01
 cg2d: Sum(rhs),rhsMax =   2.16354711923827E-14  4.93416378567189E-01
 cg2d: Sum(rhs),rhsMax =   2.58251753315619E-13  4.93338998527355E-01
 cg2d: Sum(rhs),rhsMax =  -8.52096171399808E-15  4.93265776251964E-01
 cg2d: Sum(rhs),rhsMax =  -2.59514632006130E-14  4.93195964552934E-01
 cg2d: Sum(rhs),rhsMax =  -4.15500966965965E-14  4.93128819892041E-01
 cg2d: Sum(rhs),rhsMax =   1.99978922310606E-14  4.93063610175509E-01
 cg2d: Sum(rhs),rhsMax =  -3.30430127704062E-14  4.92999634769263E-01
 cg2d: Sum(rhs),rhsMax =  -2.94625435159901E-14  4.92936221053662E-01
 cg2d: Sum(rhs),rhsMax =  -2.02129979420818E-13  4.92872727870295E-01
 cg2d: Sum(rhs),rhsMax =  -7.60919105502467E-14  4.92808581229677E-01
 cg2d: Sum(rhs),rhsMax =  -1.46729850492022E-13  4.92743248662983E-01
 cg2d: Sum(rhs),rhsMax =   1.83464354819307E-14  4.92676252465849E-01
 cg2d: Sum(rhs),rhsMax =  -1.30381816454417E-13  4.92607177097620E-01
 cg2d: Sum(rhs),rhsMax =   1.68656755228369E-13  4.92535672898425E-01
 cg2d: Sum(rhs),rhsMax =  -3.24185123190546E-14  4.92985817247251E-01
 cg2d: Sum(rhs),rhsMax =   1.63730140556595E-13  4.93467992762692E-01
 cg2d: Sum(rhs),rhsMax =   1.11771703004138E-13  4.93941655506593E-01
 cg2d: Sum(rhs),rhsMax =   1.16559539797834E-13  4.94406887192231E-01
 cg2d: Sum(rhs),rhsMax =  -7.66331442747514E-14  4.94862999224862E-01
 cg2d: Sum(rhs),rhsMax =   9.09133879289925E-14  4.95310660674442E-01
 cg2d: Sum(rhs),rhsMax =  -1.39097067197724E-13  4.95749197894364E-01
 cg2d: Sum(rhs),rhsMax =   3.37369021607969E-14  4.96182315404326E-01
 cg2d: Sum(rhs),rhsMax =   1.75678915859123E-13  4.96607088321424E-01
 cg2d: Sum(rhs),rhsMax =   5.94246873930615E-14  4.97020163768671E-01
 cg2d: Sum(rhs),rhsMax =  -4.74897898783411E-14  4.97421351154314E-01
 cg2d: Sum(rhs),rhsMax =  -1.17753029549306E-13  4.97810682641760E-01
 cg2d: Sum(rhs),rhsMax =   9.14129882900738E-14  4.98187152966441E-01
 cg2d: Sum(rhs),rhsMax =   1.64770974642181E-13  4.98548154298361E-01
 cg2d: Sum(rhs),rhsMax =   1.30756516725228E-13  4.98892743161908E-01
 cg2d: Sum(rhs),rhsMax =   2.14162021450193E-13  4.99220482154694E-01
 cg2d: Sum(rhs),rhsMax =  -1.51517687285718E-13  4.99531205612978E-01
 cg2d: Sum(rhs),rhsMax =   1.23706600518858E-13  4.99825609586132E-01
 cg2d: Sum(rhs),rhsMax =  -6.62109256310828E-14  5.00106499413301E-01
 cg2d: Sum(rhs),rhsMax =   7.23171522665211E-14  5.00376167228518E-01
 cg2d: Sum(rhs),rhsMax =  -1.55070400964519E-13  5.00633937843524E-01
 cg2d: Sum(rhs),rhsMax =   1.14339093748583E-13  5.00885880582858E-01
 cg2d: Sum(rhs),rhsMax =  -9.77828928938607E-14  5.01138872432458E-01
 cg2d: Sum(rhs),rhsMax =   1.21291865440298E-13  5.01298166678554E-01
 cg2d: Sum(rhs),rhsMax =  -8.39606162372775E-14  5.01458116655450E-01
 cg2d: Sum(rhs),rhsMax =  -1.41900380334903E-13  5.01623617522541E-01
 cg2d: Sum(rhs),rhsMax =   1.29146693339521E-13  5.01796160320742E-01
 cg2d: Sum(rhs),rhsMax =   2.75585110287579E-13  5.01977067072590E-01
 cg2d: Sum(rhs),rhsMax =   1.47562517760491E-13  5.02167425632062E-01
 cg2d: Sum(rhs),rhsMax =  -6.09234884763055E-15  5.02368511379590E-01
 cg2d: Sum(rhs),rhsMax =  -2.07361905424364E-13  5.02594900881390E-01
 cg2d: Sum(rhs),rhsMax =   1.33226762955019E-14  5.02835832437424E-01
 cg2d: Sum(rhs),rhsMax =   1.24927845845946E-13  5.03086993331808E-01
 cg2d: Sum(rhs),rhsMax =  -1.64118718615214E-13  5.03348757482540E-01
 cg2d: Sum(rhs),rhsMax =   2.96984659087229E-15  5.03619333043147E-01
 cg2d: Sum(rhs),rhsMax =   3.33066907387547E-16  5.03897618999239E-01
 cg2d: Sum(rhs),rhsMax =   2.97678548477620E-14  5.04182190001682E-01
 cg2d: Sum(rhs),rhsMax =  -1.38944411531838E-13  5.04471596940221E-01
 cg2d: Sum(rhs),rhsMax =   4.19941859064465E-14  5.04764280557426E-01
 cg2d: Sum(rhs),rhsMax =   1.94219640370363E-13  5.05058530235425E-01
 cg2d: Sum(rhs),rhsMax =  -5.14588371913760E-14  5.05352583982655E-01
 cg2d: Sum(rhs),rhsMax =  -3.97668009632923E-13  5.05645194224093E-01
 cg2d: Sum(rhs),rhsMax =  -1.13978271265580E-13  5.05935504578330E-01
 cg2d: Sum(rhs),rhsMax =  -2.28178587136085E-13  5.06221832170651E-01
 cg2d: Sum(rhs),rhsMax =  -4.83918460858490E-14  5.06502196322042E-01
 cg2d: Sum(rhs),rhsMax =   8.74300631892311E-15  5.06775207541647E-01
 cg2d: Sum(rhs),rhsMax =   2.35048092100953E-13  5.07039766792991E-01
 cg2d: Sum(rhs),rhsMax =   3.63181706930504E-14  5.07294786479082E-01
 cg2d: Sum(rhs),rhsMax =   2.17645346189954E-13  5.07538658252883E-01
 cg2d: Sum(rhs),rhsMax =   1.47770684577608E-13  5.07770603652001E-01
 cg2d: Sum(rhs),rhsMax =   5.84671200343223E-14  5.07990006084346E-01
 cg2d: Sum(rhs),rhsMax =  -4.20219414820622E-14  5.08196803405330E-01
 cg2d: Sum(rhs),rhsMax =   1.73791536717260E-13  5.08390851624051E-01
 cg2d: Sum(rhs),rhsMax =   1.91471838384416E-13  5.08572296687317E-01
 cg2d: Sum(rhs),rhsMax =   2.99898994526870E-14  5.08739743839843E-01
 cg2d: Sum(rhs),rhsMax =   1.11854969730985E-13  5.08893550438943E-01
 cg2d: Sum(rhs),rhsMax =   2.22807883254461E-13  5.09034651644412E-01
 cg2d: Sum(rhs),rhsMax =   2.27443064382271E-13  5.09164049546935E-01
 cg2d: Sum(rhs),rhsMax =   1.30770394513036E-13  5.09283118322873E-01
 cg2d: Sum(rhs),rhsMax =  -1.25802146477838E-13  5.09394077879852E-01
 cg2d: Sum(rhs),rhsMax =  -1.94150251431324E-14  5.09498730039370E-01
 cg2d: Sum(rhs),rhsMax =   3.84414722276460E-15  5.09598512466091E-01
 cg2d: Sum(rhs),rhsMax =  -2.99760216648792E-15  5.09695635022329E-01
 cg2d: Sum(rhs),rhsMax =   9.62563362350011E-14  5.09791955758330E-01
 cg2d: Sum(rhs),rhsMax =   3.40380501562265E-13  5.09889203840576E-01
 cg2d: Sum(rhs),rhsMax =  -2.21572760139566E-13  5.09988675924486E-01
 cg2d: Sum(rhs),rhsMax =   5.45813394481343E-14  5.10092874636121E-01
 cg2d: Sum(rhs),rhsMax =  -5.52613510507172E-14  5.10203560998596E-01
 cg2d: Sum(rhs),rhsMax =   9.96008830966844E-14  5.10320323322832E-01
 cg2d: Sum(rhs),rhsMax =  -2.41737185824320E-13  5.10443402427839E-01
 cg2d: Sum(rhs),rhsMax =   6.78207490167893E-14  5.10573028077213E-01
 cg2d: Sum(rhs),rhsMax =  -9.83796377695967E-14  5.10709042021534E-01
 cg2d: Sum(rhs),rhsMax =   2.45081732686003E-14  5.10851108011265E-01
 cg2d: Sum(rhs),rhsMax =   3.82610609861445E-14  5.10998671701455E-01
 cg2d: Sum(rhs),rhsMax =   6.02573546615304E-14  5.11157040939140E-01
 cg2d: Sum(rhs),rhsMax =  -2.21642149078605E-13  5.11317243765586E-01
 cg2d: Sum(rhs),rhsMax =   1.28841382007749E-13  5.11477445765686E-01
 cg2d: Sum(rhs),rhsMax =   1.03347885804794E-13  5.11636475311065E-01
 cg2d: Sum(rhs),rhsMax =   1.00280894699267E-13  5.11792956221030E-01
 cg2d: Sum(rhs),rhsMax =   1.87488913283573E-13  5.11946606776013E-01
 cg2d: Sum(rhs),rhsMax =   1.63785651707826E-13  5.12096363100523E-01
 cg2d: Sum(rhs),rhsMax =  -1.40804035098085E-13  5.12241116382049E-01
 cg2d: Sum(rhs),rhsMax =   2.43818853995492E-13  5.12379773115627E-01
 cg2d: Sum(rhs),rhsMax =   3.11056735924353E-13  5.12511413116683E-01
 cg2d: Sum(rhs),rhsMax =   6.19782003496994E-14  5.12635293115786E-01
 cg2d: Sum(rhs),rhsMax =   3.52565199257526E-13  5.12750402681226E-01
 cg2d: Sum(rhs),rhsMax =   1.22069021557536E-13  5.12856468264162E-01
 cg2d: Sum(rhs),rhsMax =  -2.07237005334093E-13  5.12953466634143E-01
 cg2d: Sum(rhs),rhsMax =   5.02931030155196E-14  5.13041183933980E-01
 cg2d: Sum(rhs),rhsMax =  -8.94839757847876E-14  5.13119549087931E-01
 cg2d: Sum(rhs),rhsMax =  -1.82173720553180E-13  5.13187926630846E-01
 cg2d: Sum(rhs),rhsMax =   8.42659275690494E-14  5.13242345090717E-01
 cg2d: Sum(rhs),rhsMax =  -1.12312936728642E-13  5.13281058128758E-01
 cg2d: Sum(rhs),rhsMax =  -1.16115450587984E-13  5.13304804216991E-01
 cg2d: Sum(rhs),rhsMax =  -1.33448807559944E-13  5.13316365083945E-01
 cg2d: Sum(rhs),rhsMax =   2.86035084506864E-13  5.13319055092788E-01
 cg2d: Sum(rhs),rhsMax =  -9.51877465737994E-14  5.13316173245051E-01
 cg2d: Sum(rhs),rhsMax =   3.07212588701589E-13  5.13310559201988E-01
 cg2d: Sum(rhs),rhsMax =  -2.45775622076394E-14  5.13304510223945E-01
 cg2d: Sum(rhs),rhsMax =   2.02199368359857E-14  5.13300186624901E-01
 cg2d: Sum(rhs),rhsMax =   2.15244488899202E-14  5.13299284231387E-01
 cg2d: Sum(rhs),rhsMax =  -1.25330301692372E-13  5.13304056548849E-01
 cg2d: Sum(rhs),rhsMax =  -1.07552855510562E-13  5.13315319140790E-01
 cg2d: Sum(rhs),rhsMax =  -2.50605092233513E-13  5.13332786565520E-01
 cg2d: Sum(rhs),rhsMax =   2.08957851022262E-13  5.13366663606245E-01
 cg2d: Sum(rhs),rhsMax =  -3.59157148466238E-14  5.13410014098551E-01
 cg2d: Sum(rhs),rhsMax =  -1.65562008547226E-14  5.13463145087237E-01
 cg2d: Sum(rhs),rhsMax =  -4.46032100143157E-14  5.13526330931571E-01
 cg2d: Sum(rhs),rhsMax =  -6.71684929898220E-14  5.13599767922838E-01
 cg2d: Sum(rhs),rhsMax =  -3.77475828372553E-14  5.13466985318043E-01
 cg2d: Sum(rhs),rhsMax =  -1.50365830897670E-13  5.13267648878382E-01
 cg2d: Sum(rhs),rhsMax =   2.42778019909906E-13  5.13076002533580E-01
 cg2d: Sum(rhs),rhsMax =   1.81105130891979E-14  5.12893203174951E-01
 cg2d: Sum(rhs),rhsMax =  -1.18641207969006E-13  5.12718040787972E-01
 cg2d: Sum(rhs),rhsMax =   1.81715753555522E-13  5.12549802379422E-01
 cg2d: Sum(rhs),rhsMax =  -3.79418718665647E-14  5.12387430921384E-01
 cg2d: Sum(rhs),rhsMax =  -1.47576395548299E-13  5.12229744132287E-01
 cg2d: Sum(rhs),rhsMax =   7.00134394904239E-14  5.12075566723028E-01
 cg2d: Sum(rhs),rhsMax =  -7.73131558773343E-14  5.11923654857121E-01
 cg2d: Sum(rhs),rhsMax =   7.48429096475434E-14  5.11772718196394E-01
 cg2d: Sum(rhs),rhsMax =  -5.67601521339611E-15  5.11621538997245E-01
 cg2d: Sum(rhs),rhsMax =  -1.92582061409041E-13  5.11468958846433E-01
 cg2d: Sum(rhs),rhsMax =  -1.65201186064223E-13  5.11313855888392E-01
 cg2d: Sum(rhs),rhsMax =   3.15844572718049E-13  5.11154916194024E-01
 cg2d: Sum(rhs),rhsMax =   2.44596010112730E-13  5.10991521056463E-01
 cg2d: Sum(rhs),rhsMax =  -7.32330862618369E-14  5.10823123657385E-01
 cg2d: Sum(rhs),rhsMax =  -1.26509913656037E-13  5.10649482580306E-01
 cg2d: Sum(rhs),rhsMax =  -1.39610545346613E-13  5.10470461357015E-01
 cg2d: Sum(rhs),rhsMax =  -2.22766249891038E-13  5.10286029613781E-01
 cg2d: Sum(rhs),rhsMax =   1.26509913656037E-13  5.10096429673906E-01
 cg2d: Sum(rhs),rhsMax =  -3.08517100755523E-13  5.09902091106616E-01
 cg2d: Sum(rhs),rhsMax =   2.52547982526607E-13  5.09703487008953E-01
 cg2d: Sum(rhs),rhsMax =  -1.85004789265975E-13  5.09501495627421E-01
 cg2d: Sum(rhs),rhsMax =  -2.15730211472476E-13  5.09297170720452E-01
 cg2d: Sum(rhs),rhsMax =  -1.58373314462779E-13  5.09091463989559E-01
 cg2d: Sum(rhs),rhsMax =   2.36435870881735E-13  5.08885429778501E-01
 cg2d: Sum(rhs),rhsMax =   1.17850174063960E-13  5.08680321913400E-01
 cg2d: Sum(rhs),rhsMax =  -4.93605156748345E-13  5.08476884049838E-01
 cg2d: Sum(rhs),rhsMax =  -1.20140009052250E-13  5.08191567686837E-01
 cg2d: Sum(rhs),rhsMax =  -1.31977762052315E-14  5.07906146847360E-01
 cg2d: Sum(rhs),rhsMax =   5.31935606673528E-14  5.07628281654459E-01
 cg2d: Sum(rhs),rhsMax =   2.18977613819504E-13  5.07358425819897E-01
 cg2d: Sum(rhs),rhsMax =  -2.33688068895788E-13  5.07097772570895E-01
 cg2d: Sum(rhs),rhsMax =   6.49480469405717E-15  5.06847135226304E-01
 cg2d: Sum(rhs),rhsMax =   2.90323320939478E-14  5.06607064360295E-01
 cg2d: Sum(rhs),rhsMax =   1.88460358430120E-13  5.06377792940732E-01
 cg2d: Sum(rhs),rhsMax =   3.27460281113190E-13  5.06159207851671E-01
 cg2d: Sum(rhs),rhsMax =  -1.44856349137967E-13  5.05950967374906E-01
 cg2d: Sum(rhs),rhsMax =   1.25330301692372E-13  5.05752392653935E-01
 cg2d: Sum(rhs),rhsMax =  -3.25989235605562E-14  5.05562586927272E-01
 cg2d: Sum(rhs),rhsMax =  -3.94684285254243E-14  5.05380412108208E-01
 cg2d: Sum(rhs),rhsMax =   8.73745520379998E-14  5.05204606961622E-01
 cg2d: Sum(rhs),rhsMax =  -4.02872180060854E-14  5.05033718356423E-01
 cg2d: Sum(rhs),rhsMax =  -4.61020110975596E-14  5.04865922201266E-01
 cg2d: Sum(rhs),rhsMax =  -1.30020993971414E-13  5.04699126329272E-01
 cg2d: Sum(rhs),rhsMax =   4.55052662218236E-14  5.04531930973576E-01
 cg2d: Sum(rhs),rhsMax =   1.50199297443976E-13  5.04363048271039E-01
 cg2d: Sum(rhs),rhsMax =  -1.10467190950203E-14  5.04191178129072E-01
 cg2d: Sum(rhs),rhsMax =   2.08971728810070E-13  5.04015051938083E-01
 cg2d: Sum(rhs),rhsMax =   1.22735155372311E-13  5.03833502942156E-01
 cg2d: Sum(rhs),rhsMax =  -3.17773585223335E-13  5.03645516293497E-01
 cg2d: Sum(rhs),rhsMax =   1.15560339075671E-13  5.03450148581930E-01
 cg2d: Sum(rhs),rhsMax =  -1.59594559789866E-13  5.03246726832916E-01
 cg2d: Sum(rhs),rhsMax =   1.88293824976427E-13  5.03034738081337E-01
 cg2d: Sum(rhs),rhsMax =   9.85322934354826E-14  5.02813904471067E-01
 cg2d: Sum(rhs),rhsMax =   1.12687636999453E-13  5.02584309601149E-01
 cg2d: Sum(rhs),rhsMax =  -1.99812388856913E-13  5.02345965338179E-01
 cg2d: Sum(rhs),rhsMax =   4.30211422042248E-14  5.02099251411587E-01
 cg2d: Sum(rhs),rhsMax =   5.25413046403855E-14  5.01845024458897E-01
 cg2d: Sum(rhs),rhsMax =  -2.94209101525666E-14  5.01585508121230E-01
 cg2d: Sum(rhs),rhsMax =  -2.63677968348475E-14  5.01319285514376E-01
 cg2d: Sum(rhs),rhsMax =   9.10521658070707E-14  5.01048413679677E-01
 cg2d: Sum(rhs),rhsMax =   6.07153216591882E-14  5.00774350362514E-01
 cg2d: Sum(rhs),rhsMax =  -1.31269994874117E-13  5.00498491599097E-01
 cg2d: Sum(rhs),rhsMax =   4.97102359275914E-14  5.00222260034777E-01
 cg2d: Sum(rhs),rhsMax =   3.37091465851813E-14  4.99947082409999E-01
 cg2d: Sum(rhs),rhsMax =  -1.21250232076875E-13  4.99674308876688E-01
 cg2d: Sum(rhs),rhsMax =   2.33965624651944E-13  4.99405445571213E-01
 cg2d: Sum(rhs),rhsMax =   5.56915624727594E-14  4.99141529469527E-01
 cg2d: Sum(rhs),rhsMax =   1.22374332889308E-13  4.98883732477408E-01
 cg2d: Sum(rhs),rhsMax =   3.38618022510673E-14  4.98632939492777E-01
 cg2d: Sum(rhs),rhsMax =   2.11872186461903E-13  4.98389848191964E-01
 cg2d: Sum(rhs),rhsMax =   1.42441614059408E-13  4.98154974085231E-01
 cg2d: Sum(rhs),rhsMax =   8.69582184037654E-14  4.97928603575267E-01
 cg2d: Sum(rhs),rhsMax =  -2.29150032282632E-13  4.97710801287648E-01
 cg2d: Sum(rhs),rhsMax =  -9.42856903662914E-14  4.97501404795660E-01
 cg2d: Sum(rhs),rhsMax =  -5.35668731593830E-13  4.97300069055751E-01
 cg2d: Sum(rhs),rhsMax =  -2.03351224747905E-13  4.97106843304484E-01
 cg2d: Sum(rhs),rhsMax =  -4.14751566424343E-13  4.96920283168482E-01
 cg2d: Sum(rhs),rhsMax =   2.90184543061400E-14  4.96739307888624E-01
 cg2d: Sum(rhs),rhsMax =   1.91194282628260E-13  4.96562835403890E-01
 cg2d: Sum(rhs),rhsMax =   2.39530617562878E-14  4.96389474524334E-01
 cg2d: Sum(rhs),rhsMax =   3.04062330869215E-14  4.96217896071818E-01
 cg2d: Sum(rhs),rhsMax =  -7.77156117237610E-14  4.96046742309286E-01
 cg2d: Sum(rhs),rhsMax =   7.48984207987746E-14  4.95874750885035E-01
 cg2d: Sum(rhs),rhsMax =  -3.10446113260809E-13  4.95700595978696E-01
 cg2d: Sum(rhs),rhsMax =  -6.12287998080774E-14  4.95522892960059E-01
 cg2d: Sum(rhs),rhsMax =  -9.31893451294741E-14  4.95340146669785E-01
 cg2d: Sum(rhs),rhsMax =  -2.82857071098874E-13  4.95015852363209E-01
 cg2d: Sum(rhs),rhsMax =  -7.55784324013575E-14  4.94684292434758E-01
 cg2d: Sum(rhs),rhsMax =   1.01224584270199E-13  4.94348617676909E-01
 cg2d: Sum(rhs),rhsMax =   2.40085729075190E-13  4.94008056728169E-01
 cg2d: Sum(rhs),rhsMax =   1.56222257352567E-13  4.93663120447087E-01
 cg2d: Sum(rhs),rhsMax =  -3.50552920025393E-14  4.93314146438611E-01
 cg2d: Sum(rhs),rhsMax =  -2.47857290247566E-14  4.92961610143950E-01
 cg2d: Sum(rhs),rhsMax =  -9.30505672513959E-14  4.92606214693700E-01
 cg2d: Sum(rhs),rhsMax =   1.03764219439029E-13  4.92248652241060E-01
 cg2d: Sum(rhs),rhsMax =  -2.12899142759682E-13  4.91889647581320E-01
 cg2d: Sum(rhs),rhsMax =  -1.59289248458094E-13  4.91529962995591E-01
 cg2d: Sum(rhs),rhsMax =   1.04069530770801E-13  4.91170427527869E-01
 cg2d: Sum(rhs),rhsMax =  -1.67504898840320E-13  4.90813140490756E-01
 cg2d: Sum(rhs),rhsMax =  -1.27439725439160E-13  4.90456768804344E-01
 cg2d: Sum(rhs),rhsMax =   9.92261828258734E-15  4.90102265638704E-01
 cg2d: Sum(rhs),rhsMax =   8.48626724447854E-14  4.89749142442821E-01
 cg2d: Sum(rhs),rhsMax =   3.33136296326586E-13  4.89398298056522E-01
 cg2d: Sum(rhs),rhsMax =  -1.03819730590260E-13  4.89050969962215E-01
 cg2d: Sum(rhs),rhsMax =  -7.99776911364347E-14  4.88708265179601E-01
 cg2d: Sum(rhs),rhsMax =   3.43183814699444E-13  4.88371023985012E-01
 cg2d: Sum(rhs),rhsMax =  -1.07136521876328E-14  4.88040068124757E-01
 cg2d: Sum(rhs),rhsMax =   7.62306884283248E-14  4.87715884508610E-01
 cg2d: Sum(rhs),rhsMax =  -7.03742619734271E-14  4.87397688201952E-01
 cg2d: Sum(rhs),rhsMax =  -1.28508315100362E-14  4.87085757203865E-01
 cg2d: Sum(rhs),rhsMax =   3.73659436725404E-13  4.86780820718320E-01
 cg2d: Sum(rhs),rhsMax =   2.30870877970801E-13  4.86483254562095E-01
 cg2d: Sum(rhs),rhsMax =   1.22485355191770E-13  4.86193291268531E-01
 cg2d: Sum(rhs),rhsMax =  -1.03667074924374E-13  4.85910454265729E-01
 cg2d: Sum(rhs),rhsMax =  -1.89001592154625E-13  4.85633319177158E-01
 cg2d: Sum(rhs),rhsMax =  -2.93765012315816E-13  4.85361207512404E-01
 cg2d: Sum(rhs),rhsMax =   1.32907573835439E-13  4.85093393424466E-01
 cg2d: Sum(rhs),rhsMax =   1.27758914558740E-13  4.84828933430611E-01
 cg2d: Sum(rhs),rhsMax =   2.80081513537311E-13  4.84566732379800E-01
 cg2d: Sum(rhs),rhsMax =  -1.32630018079283E-13  4.84306110669069E-01
 cg2d: Sum(rhs),rhsMax =  -9.07468544752987E-14  4.84045732817176E-01
 cg2d: Sum(rhs),rhsMax =  -9.73526814718184E-14  4.83784588061476E-01
 cg2d: Sum(rhs),rhsMax =  -2.14828155264968E-13  4.83521794017429E-01
 cg2d: Sum(rhs),rhsMax =   1.29354860156639E-13  4.83256542835553E-01
 cg2d: Sum(rhs),rhsMax =  -9.68392033229293E-14  4.82988101930738E-01
 cg2d: Sum(rhs),rhsMax =   7.65221219722889E-14  4.82671788527754E-01
 cg2d: Sum(rhs),rhsMax =   4.21607193601403E-14  4.82351097316040E-01
 cg2d: Sum(rhs),rhsMax =  -1.21153087562220E-14  4.82026892143160E-01
 cg2d: Sum(rhs),rhsMax =   3.63459262686661E-14  4.82055215594481E-01
 cg2d: Sum(rhs),rhsMax =   1.12479470182336E-13  4.82121530428593E-01
 cg2d: Sum(rhs),rhsMax =   1.80688797257744E-13  4.82184407065773E-01
 cg2d: Sum(rhs),rhsMax =   7.82707232360735E-15  4.82242896149815E-01
 cg2d: Sum(rhs),rhsMax =  -1.63494218163862E-13  4.82296019377849E-01
 cg2d: Sum(rhs),rhsMax =  -1.23470678126125E-13  4.82342816718259E-01
 cg2d: Sum(rhs),rhsMax =   3.06837888430778E-14  4.82382370658132E-01
 cg2d: Sum(rhs),rhsMax =  -1.43052236722951E-13  4.82413837918559E-01
 cg2d: Sum(rhs),rhsMax =  -3.05311331771918E-16  4.82436489766484E-01
 cg2d: Sum(rhs),rhsMax =  -1.77940995271797E-13  4.82449701428360E-01
 cg2d: Sum(rhs),rhsMax =  -2.70561351101151E-13  4.82452873167499E-01
 cg2d: Sum(rhs),rhsMax =  -2.58182364376580E-13  4.82445607406302E-01
 cg2d: Sum(rhs),rhsMax =   2.33979502439752E-14  4.82427634055361E-01
 cg2d: Sum(rhs),rhsMax =   1.40193412434542E-13  4.82398902753203E-01
 cg2d: Sum(rhs),rhsMax =  -2.39849806682457E-13  4.82359468891689E-01
 cg2d: Sum(rhs),rhsMax =  -4.73371342124551E-14  4.82309663119300E-01
 cg2d: Sum(rhs),rhsMax =   2.12330153459561E-14  4.82249947953518E-01
 cg2d: Sum(rhs),rhsMax =  -1.70141678523805E-14  4.82181004614841E-01
 cg2d: Sum(rhs),rhsMax =   4.02330946336349E-13  4.82103703182678E-01
 cg2d: Sum(rhs),rhsMax =   2.96179747394376E-13  4.82019047556354E-01
 cg2d: Sum(rhs),rhsMax =  -1.00780495060349E-13  4.81928197821563E-01
 cg2d: Sum(rhs),rhsMax =   6.95415947049582E-14  4.81832503372451E-01
 cg2d: Sum(rhs),rhsMax =   3.70536934468646E-15  4.81733405377503E-01
 cg2d: Sum(rhs),rhsMax =   1.20681242776755E-13  4.81632484434010E-01
 cg2d: Sum(rhs),rhsMax =  -4.39093206239249E-14  4.81531380995082E-01
 cg2d: Sum(rhs),rhsMax =   3.31262794972531E-14  4.81431777629577E-01
 cg2d: Sum(rhs),rhsMax =  -1.94705362943637E-13  4.81335362915903E-01
 cg2d: Sum(rhs),rhsMax =   2.06973327365745E-13  4.81243773023183E-01
 cg2d: Sum(rhs),rhsMax =   5.80091530366644E-14  4.81158632692666E-01
 cg2d: Sum(rhs),rhsMax =  -1.45120027106316E-13  4.81081519845869E-01
 cg2d: Sum(rhs),rhsMax =   8.16013923099490E-14  4.81013903625330E-01
 cg2d: Sum(rhs),rhsMax =  -3.24740234702858E-14  4.80957113648292E-01
 cg2d: Sum(rhs),rhsMax =   1.26287869051112E-15  4.80912297970560E-01
 cg2d: Sum(rhs),rhsMax =   2.38517539052907E-13  4.80880462785791E-01
 cg2d: Sum(rhs),rhsMax =   1.79634085384350E-13  4.80862376777676E-01
 cg2d: Sum(rhs),rhsMax =  -1.77954873059605E-13  4.80858600630711E-01
 cg2d: Sum(rhs),rhsMax =   4.56856774633252E-14  4.80869462682190E-01
 cg2d: Sum(rhs),rhsMax =   1.04138919709840E-13  4.80895055957961E-01
 cg2d: Sum(rhs),rhsMax =  -3.60864116366599E-13  4.80935257406731E-01
 cg2d: Sum(rhs),rhsMax =   4.57647808538297E-13  4.80989677786787E-01
 cg2d: Sum(rhs),rhsMax =  -7.93948240485065E-14  4.81057693868329E-01
 cg2d: Sum(rhs),rhsMax =   3.00315328161105E-14  4.81138464709311E-01
 cg2d: Sum(rhs),rhsMax =   2.48204234942762E-13  4.81230790977928E-01
 cg2d: Sum(rhs),rhsMax =  -2.35075847676569E-13  4.81333274748396E-01
 cg2d: Sum(rhs),rhsMax =  -1.09259823410923E-13  4.81444551733455E-01
 cg2d: Sum(rhs),rhsMax =  -8.00748356510894E-15  4.81563138686468E-01
 cg2d: Sum(rhs),rhsMax =   9.81159598012482E-14  4.81687514112491E-01
 cg2d: Sum(rhs),rhsMax =   2.08583150751451E-14  4.81816047584677E-01
 cg2d: Sum(rhs),rhsMax =  -1.14491749414469E-14  4.81947075762507E-01
 cg2d: Sum(rhs),rhsMax =  -6.44206910038747E-14  4.82078932959133E-01
 cg2d: Sum(rhs),rhsMax =   2.19546603119625E-14  4.82209970510540E-01
 cg2d: Sum(rhs),rhsMax =   3.31679128606766E-15  4.82338603206706E-01
 cg2d: Sum(rhs),rhsMax =   4.34888236533482E-13  4.82463285510240E-01
 cg2d: Sum(rhs),rhsMax =   2.24306684337705E-13  4.82580194479034E-01
 cg2d: Sum(rhs),rhsMax =  -1.03680952712182E-13  4.82689918166219E-01
 cg2d: Sum(rhs),rhsMax =  -4.37150315946155E-15  4.82791415083409E-01
 cg2d: Sum(rhs),rhsMax =   1.12965192755610E-14  4.82883781466113E-01
 cg2d: Sum(rhs),rhsMax =  -1.43218770176645E-13  4.82966380200267E-01
 cg2d: Sum(rhs),rhsMax =   1.47659662275146E-14  4.83038757897964E-01
 cg2d: Sum(rhs),rhsMax =   2.91988655476416E-13  4.83100693158034E-01
 cg2d: Sum(rhs),rhsMax =  -1.26426646929190E-14  4.83152193437514E-01
 cg2d: Sum(rhs),rhsMax =  -1.72736824843867E-13  4.83193485148107E-01
 cg2d: Sum(rhs),rhsMax =  -1.10494946525819E-13  4.83225007379472E-01
 cg2d: Sum(rhs),rhsMax =   1.74193992563687E-13  4.83247395236122E-01
 cg2d: Sum(rhs),rhsMax =   2.44804176929847E-14  4.83261456475041E-01
 cg2d: Sum(rhs),rhsMax =  -2.70367062071841E-13  4.83268153729556E-01
 cg2d: Sum(rhs),rhsMax =  -2.01810790301238E-13  4.83268552421135E-01
 cg2d: Sum(rhs),rhsMax =   1.56916146742958E-13  4.83263796162267E-01
 cg2d: Sum(rhs),rhsMax =   6.02295990859147E-15  4.83255125902031E-01
 cg2d: Sum(rhs),rhsMax =  -1.06414876910321E-13  4.83243873201779E-01
 cg2d: Sum(rhs),rhsMax =   1.61759494687885E-13  4.83231328273154E-01
 cg2d: Sum(rhs),rhsMax =   3.05616643103690E-13  4.83218797385137E-01
 cg2d: Sum(rhs),rhsMax =  -2.12385664610792E-13  4.83207527490488E-01
 cg2d: Sum(rhs),rhsMax =  -3.42226247340705E-14  4.83198679980414E-01
 cg2d: Sum(rhs),rhsMax =  -3.54785645306777E-13  4.83193292109596E-01
 cg2d: Sum(rhs),rhsMax =  -2.42195152821978E-13  4.83192300046483E-01
 cg2d: Sum(rhs),rhsMax =  -7.58698659453216E-14  4.83196500099893E-01
 cg2d: Sum(rhs),rhsMax =  -1.89431803576667E-14  4.83206515743324E-01
 cg2d: Sum(rhs),rhsMax =  -1.86795023893183E-14  4.83222759188680E-01
 cg2d: Sum(rhs),rhsMax =  -6.79040157436361E-14  4.83245231882212E-01
 cg2d: Sum(rhs),rhsMax =   2.05335748404423E-13  4.83273615280654E-01
 cg2d: Sum(rhs),rhsMax =   1.93692284433666E-13  4.83307827720360E-01
 cg2d: Sum(rhs),rhsMax =  -1.43704492749919E-13  4.83347633838661E-01
 cg2d: Sum(rhs),rhsMax =   1.33268396318442E-13  4.83392662731823E-01
 cg2d: Sum(rhs),rhsMax =   1.97730720685740E-13  4.83442333948279E-01
 cg2d: Sum(rhs),rhsMax =  -2.55781507085828E-13  4.83495993894913E-01
 cg2d: Sum(rhs),rhsMax =   2.01214045425502E-13  4.83552831896246E-01
 cg2d: Sum(rhs),rhsMax =  -3.72479824761740E-14  4.83612017917246E-01
 cg2d: Sum(rhs),rhsMax =  -1.22526988555194E-13  4.83672599687772E-01
 cg2d: Sum(rhs),rhsMax =   3.29777871677095E-13  4.83732805661475E-01
 cg2d: Sum(rhs),rhsMax =   3.66290331399455E-13  4.83792439556210E-01
 cg2d: Sum(rhs),rhsMax =   1.72500902451134E-14  4.83850492819636E-01
 cg2d: Sum(rhs),rhsMax =  -4.58383331292112E-14  4.83905986583362E-01
 cg2d: Sum(rhs),rhsMax =  -2.01977323754932E-13  4.83958017670273E-01
 cg2d: Sum(rhs),rhsMax =  -5.43176614797858E-14  4.84005746542572E-01
 cg2d: Sum(rhs),rhsMax =   5.52335954751015E-15  4.84048436208354E-01
 cg2d: Sum(rhs),rhsMax =   2.99912872314678E-13  4.84085457327670E-01
 cg2d: Sum(rhs),rhsMax =   2.80747647352086E-14  4.84115691247460E-01
 cg2d: Sum(rhs),rhsMax =   1.06303854607859E-14  4.84138628350667E-01
 cg2d: Sum(rhs),rhsMax =  -1.01890718084974E-13  4.84154075701364E-01
 cg2d: Sum(rhs),rhsMax =   2.86493051504522E-13  4.84161995353606E-01
 cg2d: Sum(rhs),rhsMax =   2.53963516883005E-15  4.84162483680325E-01
 cg2d: Sum(rhs),rhsMax =   8.68055627378794E-14  4.84155790191916E-01
 cg2d: Sum(rhs),rhsMax =  -2.67161293088236E-13  4.84142326240068E-01
 cg2d: Sum(rhs),rhsMax =  -3.23630011678233E-13  4.84122625994174E-01
 cg2d: Sum(rhs),rhsMax =  -1.06331610183474E-13  4.84097331732707E-01
 cg2d: Sum(rhs),rhsMax =   1.11036180250323E-13  4.84067131474924E-01
 cg2d: Sum(rhs),rhsMax =   1.27162169683004E-13  4.84032904490033E-01
 cg2d: Sum(rhs),rhsMax =   1.50948697985598E-13  4.83995541438526E-01
 cg2d: Sum(rhs),rhsMax =   1.73125402902485E-13  4.83956048842058E-01
 cg2d: Sum(rhs),rhsMax =  -6.04377659030320E-14  4.83915403964178E-01
 cg2d: Sum(rhs),rhsMax =   7.34273752911463E-14  4.83874595149642E-01
 cg2d: Sum(rhs),rhsMax =  -8.93729534823251E-15  4.83834573099335E-01
 cg2d: Sum(rhs),rhsMax =   4.01068067645838E-15  4.83796264653716E-01
 cg2d: Sum(rhs),rhsMax =   5.64409630143814E-14  4.83760520292008E-01
 cg2d: Sum(rhs),rhsMax =  -7.90201237776955E-14  4.83728132795359E-01
 cg2d: Sum(rhs),rhsMax =   1.82076576038526E-13  4.83699771713135E-01
 cg2d: Sum(rhs),rhsMax =   2.01144656486463E-13  4.83676019209961E-01
 cg2d: Sum(rhs),rhsMax =  -2.08860706507608E-13  4.83656673014651E-01
 cg2d: Sum(rhs),rhsMax =  -2.23918106279086E-13  4.83642011142455E-01
 cg2d: Sum(rhs),rhsMax =  -1.44093070808538E-13  4.83632295460958E-01
 cg2d: Sum(rhs),rhsMax =  -1.20722876140178E-13  4.83627654537844E-01
 cg2d: Sum(rhs),rhsMax =   2.69645417105835E-14  4.83628130489966E-01
 cg2d: Sum(rhs),rhsMax =   2.53852494580542E-13  4.83633686422083E-01
 cg2d: Sum(rhs),rhsMax =   1.40942812976164E-13  4.83644177672937E-01
 cg2d: Sum(rhs),rhsMax =  -1.50629508866018E-13  4.83659390539273E-01
 cg2d: Sum(rhs),rhsMax =   2.46636044920479E-13  4.83679027777477E-01
 cg2d: Sum(rhs),rhsMax =  -1.05582209641852E-13  4.83702707344538E-01
 cg2d: Sum(rhs),rhsMax =  -3.73576169998557E-13  4.83730150930560E-01
 cg2d: Sum(rhs),rhsMax =   2.55420684602825E-13  4.83760861238319E-01
 cg2d: Sum(rhs),rhsMax =  -1.70280456401883E-14  4.83794384372114E-01
 cg2d: Sum(rhs),rhsMax =   1.83839055090118E-13  4.83830259240909E-01
 cg2d: Sum(rhs),rhsMax =  -2.19546603119625E-14  4.83868169230726E-01
 cg2d: Sum(rhs),rhsMax =   2.29705143794945E-13  4.83907743280857E-01
 cg2d: Sum(rhs),rhsMax =  -8.87623308187813E-14  4.83948644033048E-01
 cg2d: Sum(rhs),rhsMax =   7.45653538913871E-14  4.83990617418256E-01
 cg2d: Sum(rhs),rhsMax =  -5.89250870319802E-14  4.84033464934402E-01
 cg2d: Sum(rhs),rhsMax =  -6.44484465794903E-14  4.84077285856745E-01
 cg2d: Sum(rhs),rhsMax =   1.19612653115553E-13  4.84122816011497E-01
 cg2d: Sum(rhs),rhsMax =  -1.48631107421693E-13  4.84168367685770E-01
 cg2d: Sum(rhs),rhsMax =   1.19362852935012E-13  4.84213999712757E-01
 cg2d: Sum(rhs),rhsMax =  -2.73323030874906E-13  4.84259885693480E-01
 cg2d: Sum(rhs),rhsMax =   1.03736463863413E-13  4.84306254874424E-01
 cg2d: Sum(rhs),rhsMax =   1.67615921142783E-13  4.84353407627035E-01
 cg2d: Sum(rhs),rhsMax =   4.91828799908944E-14  4.84401661753727E-01
 cg2d: Sum(rhs),rhsMax =  -1.04763420161191E-13  4.84451349614929E-01
 cg2d: Sum(rhs),rhsMax =  -2.27817764653082E-13  4.84502857855688E-01
 cg2d: Sum(rhs),rhsMax =   2.24029128581549E-13  4.84556599706231E-01
 cg2d: Sum(rhs),rhsMax =  -2.12538320276678E-13  4.84612961738132E-01
 cg2d: Sum(rhs),rhsMax =  -9.27452559196240E-14  4.84672309571174E-01
 cg2d: Sum(rhs),rhsMax =  -2.73184252996828E-13  4.84734950579648E-01
 cg2d: Sum(rhs),rhsMax =   2.82968093401337E-14  4.84801155850566E-01
 cg2d: Sum(rhs),rhsMax =  -7.71327446358328E-14  4.84871133761861E-01
 cg2d: Sum(rhs),rhsMax =   1.86392568046756E-13  4.84945029253219E-01
 cg2d: Sum(rhs),rhsMax =  -1.39180333924571E-13  4.85022236412042E-01
 cg2d: Sum(rhs),rhsMax =  -1.95149452153487E-13  4.85102670869756E-01
 cg2d: Sum(rhs),rhsMax =   4.77951012101130E-14  4.85186194468446E-01
 cg2d: Sum(rhs),rhsMax =  -9.14684994413051E-14  4.85272595535573E-01
 cg2d: Sum(rhs),rhsMax =  -2.05113703799498E-13  4.85361561922500E-01
 cg2d: Sum(rhs),rhsMax =   1.67393876537858E-13  4.85452826810742E-01
 cg2d: Sum(rhs),rhsMax =   1.13922760114349E-13  4.85545901439221E-01
 cg2d: Sum(rhs),rhsMax =   8.55843174107918E-14  4.85640333174510E-01
 cg2d: Sum(rhs),rhsMax =   2.11067274769050E-13  4.85735622422693E-01
 cg2d: Sum(rhs),rhsMax =  -1.06359365759090E-13  4.85831228031394E-01
 cg2d: Sum(rhs),rhsMax =  -9.30366894635881E-14  4.85926610492921E-01
 cg2d: Sum(rhs),rhsMax =  -2.38517539052907E-13  4.86021218439580E-01
 cg2d: Sum(rhs),rhsMax =  -2.93334800893774E-13  4.86114509956771E-01
 cg2d: Sum(rhs),rhsMax =  -6.23529006205104E-14  4.86205891058460E-01
 cg2d: Sum(rhs),rhsMax =   8.14626144318709E-15  4.86294870738132E-01
 cg2d: Sum(rhs),rhsMax =  -3.59726137766359E-13  4.86380975381564E-01
 cg2d: Sum(rhs),rhsMax =  -1.58512092340857E-13  4.86463780782046E-01
 cg2d: Sum(rhs),rhsMax =   8.25312040930726E-14  4.86542920062145E-01
 cg2d: Sum(rhs),rhsMax =  -8.40577607519322E-14  4.86618084595013E-01
 cg2d: Sum(rhs),rhsMax =   6.13536998983477E-14  4.86689055511945E-01
 cg2d: Sum(rhs),rhsMax =  -1.56041846111066E-13  4.86755661386817E-01
 cg2d: Sum(rhs),rhsMax =   6.88477053145675E-14  4.86817825704589E-01
 cg2d: Sum(rhs),rhsMax =  -2.55490073541864E-14  4.86875524956929E-01
 cg2d: Sum(rhs),rhsMax =  -1.62841962136895E-13  4.86928366116280E-01
 cg2d: Sum(rhs),rhsMax =   7.70217223333702E-15  4.86976190625521E-01
 cg2d: Sum(rhs),rhsMax =  -1.17239551400417E-13  4.87019223341615E-01
 cg2d: Sum(rhs),rhsMax =  -1.51545442861334E-14  4.87057749185564E-01
 cg2d: Sum(rhs),rhsMax =   6.97220059464598E-14  4.87092135294898E-01
 cg2d: Sum(rhs),rhsMax =  -8.25450818808804E-14  4.87122759454599E-01
 cg2d: Sum(rhs),rhsMax =   2.31523133997769E-13  4.87149998882029E-01
 cg2d: Sum(rhs),rhsMax =  -3.45001804902267E-14  4.87173278844701E-01
 cg2d: Sum(rhs),rhsMax =   9.04276653557190E-14  4.87194024880400E-01
 cg2d: Sum(rhs),rhsMax =   1.05082609280771E-13  4.87212188861086E-01
 cg2d: Sum(rhs),rhsMax =  -2.24958940364672E-14  4.87229280539388E-01
 cg2d: Sum(rhs),rhsMax =   1.16434639707563E-13  4.87245059884775E-01
 cg2d: Sum(rhs),rhsMax =  -4.32487379242730E-13  4.87259753140911E-01
 cg2d: Sum(rhs),rhsMax =  -1.97855620776011E-13  4.87273757936733E-01
 cg2d: Sum(rhs),rhsMax =  -7.32053306862213E-14  4.87287253973691E-01
 cg2d: Sum(rhs),rhsMax =  -3.46944695195361E-15  4.87300399938637E-01
 cg2d: Sum(rhs),rhsMax =   3.11417558407356E-14  4.87312918814675E-01
 cg2d: Sum(rhs),rhsMax =  -1.76414438612937E-13  4.87324312893274E-01
 cg2d: Sum(rhs),rhsMax =  -1.92706961499312E-13  4.87334498743044E-01
 cg2d: Sum(rhs),rhsMax =  -1.78468351208494E-13  4.87343346332120E-01
 cg2d: Sum(rhs),rhsMax =   2.16646145467791E-13  4.87345769162866E-01
 cg2d: Sum(rhs),rhsMax =   4.24105195406810E-14  4.87346464497886E-01
 cg2d: Sum(rhs),rhsMax =   1.41345268822590E-13  4.87345428085851E-01
 cg2d: Sum(rhs),rhsMax =  -4.10504963355152E-14  4.87342406739294E-01
 cg2d: Sum(rhs),rhsMax =   4.20413703849931E-13  4.87337226425777E-01
 cg2d: Sum(rhs),rhsMax =  -2.85396706267704E-13  4.87329724416919E-01
 cg2d: Sum(rhs),rhsMax =   1.84005588543812E-13  4.87319771032040E-01
 cg2d: Sum(rhs),rhsMax =   1.19931842235133E-13  4.87307287381180E-01
 cg2d: Sum(rhs),rhsMax =  -2.99857361163447E-13  4.87292201034401E-01
 cg2d: Sum(rhs),rhsMax =  -6.04932770542632E-14  4.87274533822871E-01
 cg2d: Sum(rhs),rhsMax =  -1.55361834508483E-13  4.87254415876400E-01
 cg2d: Sum(rhs),rhsMax =   2.01824668089046E-13  4.87233685078621E-01
 cg2d: Sum(rhs),rhsMax =  -6.08957329006898E-14  4.87211146311941E-01
 cg2d: Sum(rhs),rhsMax =   1.70280456401883E-14  4.87186954469523E-01
 cg2d: Sum(rhs),rhsMax =   2.47010745191290E-13  4.87161548192742E-01
 cg2d: Sum(rhs),rhsMax =  -8.12128142513302E-14  4.87135678374549E-01
 cg2d: Sum(rhs),rhsMax =  -1.76414438612937E-13  4.87109456647998E-01
 cg2d: Sum(rhs),rhsMax =   5.43870504188249E-14  4.87083872643470E-01
 cg2d: Sum(rhs),rhsMax =   1.10217390769662E-13  4.87059594024436E-01
 cg2d: Sum(rhs),rhsMax =  -2.81857870376712E-14  4.87037334354580E-01
 cg2d: Sum(rhs),rhsMax =   1.80702675045552E-13  4.87017876738088E-01
 cg2d: Sum(rhs),rhsMax =   8.63892291036450E-14  4.87001981590831E-01
 cg2d: Sum(rhs),rhsMax =  -1.05887520973624E-14  4.86990196559218E-01
 cg2d: Sum(rhs),rhsMax =  -3.57477936141493E-13  4.86982865279039E-01
 cg2d: Sum(rhs),rhsMax =  -2.94625435159901E-14  4.86980773394394E-01
 cg2d: Sum(rhs),rhsMax =  -3.09488545902070E-13  4.86984659095011E-01
 cg2d: Sum(rhs),rhsMax =  -5.33600941210466E-14  4.86995215817436E-01
 cg2d: Sum(rhs),rhsMax =   1.36932132299705E-13  4.87012990448417E-01
 cg2d: Sum(rhs),rhsMax =   1.12770903726300E-13  4.87038473466358E-01
 cg2d: Sum(rhs),rhsMax =  -2.69326227986255E-13  4.87072022842334E-01
 cg2d: Sum(rhs),rhsMax =  -2.40002462348343E-13  4.87113860486022E-01
 cg2d: Sum(rhs),rhsMax =  -1.15532583500055E-13  4.87164059475511E-01
 cg2d: Sum(rhs),rhsMax =  -1.66769376086506E-13  4.87222556702471E-01
 cg2d: Sum(rhs),rhsMax =  -1.76192394008012E-13  4.87289118328174E-01
 cg2d: Sum(rhs),rhsMax =  -5.77454750683160E-14  4.87363395906284E-01
 cg2d: Sum(rhs),rhsMax =  -1.11716191852906E-13  4.87444510109514E-01
 cg2d: Sum(rhs),rhsMax =  -1.12090892123717E-13  4.87531403262497E-01
 cg2d: Sum(rhs),rhsMax =  -4.37289093824234E-14  4.87623088845799E-01
 cg2d: Sum(rhs),rhsMax =   3.09474668114262E-14  4.87718907770823E-01
 cg2d: Sum(rhs),rhsMax =  -1.09329212349962E-13  4.87817858188459E-01
 cg2d: Sum(rhs),rhsMax =   1.93151050709162E-13  4.87918803352419E-01
 cg2d: Sum(rhs),rhsMax =   9.70751257156621E-14  4.88020665443439E-01
 cg2d: Sum(rhs),rhsMax =   1.98119298744359E-13  4.88122350665356E-01
 cg2d: Sum(rhs),rhsMax =   3.35148575558719E-14  4.88222767116461E-01
 cg2d: Sum(rhs),rhsMax =  -2.11497486191092E-13  4.88320827614576E-01
 cg2d: Sum(rhs),rhsMax =  -7.52731210695856E-14  4.88415542382645E-01
 cg2d: Sum(rhs),rhsMax =   1.94191884794748E-13  4.88506025675530E-01
 cg2d: Sum(rhs),rhsMax =  -9.58538803885745E-14  4.88591524139613E-01
 cg2d: Sum(rhs),rhsMax =  -1.72847847146329E-13  4.88671348733857E-01
 cg2d: Sum(rhs),rhsMax =   1.46424539160250E-13  4.88744995860411E-01
 cg2d: Sum(rhs),rhsMax =   1.06498143637168E-13  4.88812100969411E-01
 cg2d: Sum(rhs),rhsMax =   1.15310538895130E-13  4.88872451581643E-01
 cg2d: Sum(rhs),rhsMax =  -9.79355485597466E-14  4.88926005640501E-01
 cg2d: Sum(rhs),rhsMax =  -2.22072360500647E-13  4.88972923505901E-01
 cg2d: Sum(rhs),rhsMax =   1.90111815179250E-13  4.89013433286641E-01
 cg2d: Sum(rhs),rhsMax =   8.62088178621434E-14  4.89048016548294E-01
 cg2d: Sum(rhs),rhsMax =   2.10970130254395E-13  4.89077262940643E-01
 cg2d: Sum(rhs),rhsMax =  -1.08274500476568E-13  4.89101887577904E-01
 cg2d: Sum(rhs),rhsMax =  -2.10900741315356E-13  4.89122732066154E-01
 cg2d: Sum(rhs),rhsMax =  -1.63757896132211E-15  4.89140715737248E-01
 cg2d: Sum(rhs),rhsMax =   5.88140647295177E-14  4.89156373545808E-01
 cg2d: Sum(rhs),rhsMax =  -1.38680733563490E-13  4.89171911926337E-01
 cg2d: Sum(rhs),rhsMax =  -1.38139499838985E-13  4.89187292397866E-01
 cg2d: Sum(rhs),rhsMax =   2.29871677248639E-13  4.89203914642087E-01
 cg2d: Sum(rhs),rhsMax =   1.74457670532036E-13  4.89222718874266E-01
 cg2d: Sum(rhs),rhsMax =   5.87863091539020E-14  4.89244666568438E-01
 cg2d: Sum(rhs),rhsMax =   1.10744746706359E-13  4.89270642800421E-01
 cg2d: Sum(rhs),rhsMax =   1.19140808330087E-13  4.89301406091585E-01
 cg2d: Sum(rhs),rhsMax =   2.27595720048157E-13  4.89337602157150E-01
 cg2d: Sum(rhs),rhsMax =   1.03375641380410E-13  4.89379706129755E-01
 cg2d: Sum(rhs),rhsMax =  -1.55625512476831E-13  4.89428048590161E-01
 cg2d: Sum(rhs),rhsMax =   2.63344901441087E-13  4.89482834773758E-01
 cg2d: Sum(rhs),rhsMax =  -8.34055047249649E-15  4.89544033225193E-01
 cg2d: Sum(rhs),rhsMax =  -9.19542220145786E-14  4.89611440145531E-01
 cg2d: Sum(rhs),rhsMax =   1.65714664213112E-13  4.89684666948374E-01
 cg2d: Sum(rhs),rhsMax =  -1.67921232474555E-15  4.89763154039136E-01
 cg2d: Sum(rhs),rhsMax =  -8.89566198480907E-14  4.89846180557138E-01
 cg2d: Sum(rhs),rhsMax =   1.10897402372245E-13  4.89932863110341E-01
 cg2d: Sum(rhs),rhsMax =   2.28914109889899E-13  4.90022170927490E-01
 cg2d: Sum(rhs),rhsMax =  -4.35484981409218E-14  4.90112978826781E-01
 cg2d: Sum(rhs),rhsMax =  -4.10504963355152E-14  4.90204094020639E-01
 cg2d: Sum(rhs),rhsMax =   1.53196899610464E-13  4.90294244174642E-01
 cg2d: Sum(rhs),rhsMax =   9.09133879289925E-14  4.90382114612332E-01
 cg2d: Sum(rhs),rhsMax =   2.50355292052973E-14  4.90466416684510E-01
 cg2d: Sum(rhs),rhsMax =  -2.36047292823116E-13  4.90546552987106E-01
 cg2d: Sum(rhs),rhsMax =  -1.58914548187283E-13  4.90621432619554E-01
 cg2d: Sum(rhs),rhsMax =   3.23074900165921E-14  4.90689306591054E-01
 cg2d: Sum(rhs),rhsMax =   8.05744360121707E-14  4.90749215624220E-01
 cg2d: Sum(rhs),rhsMax =   2.12566075852294E-13  4.90800372531714E-01
 cg2d: Sum(rhs),rhsMax =  -2.99718583285369E-13  4.90842154095933E-01
 cg2d: Sum(rhs),rhsMax =   1.05984665488279E-13  4.90874101787572E-01
 cg2d: Sum(rhs),rhsMax =   1.94622096216790E-13  4.90895956149976E-01
 cg2d: Sum(rhs),rhsMax =  -1.63008495590589E-13  4.90907660645634E-01
 cg2d: Sum(rhs),rhsMax =   2.31217822665997E-13  4.90909340827267E-01
 cg2d: Sum(rhs),rhsMax =   2.10664818922623E-14  4.90901336663954E-01
 cg2d: Sum(rhs),rhsMax =  -1.72556413602365E-13  4.90884169116082E-01
 cg2d: Sum(rhs),rhsMax =  -1.27758914558740E-13  4.90858559793612E-01
 cg2d: Sum(rhs),rhsMax =   1.68143277079480E-13  4.90825400763325E-01
 cg2d: Sum(rhs),rhsMax =   6.22141227424322E-14  4.90786815714662E-01
 cg2d: Sum(rhs),rhsMax =  -3.05366842923149E-13  4.90741167684113E-01
 cg2d: Sum(rhs),rhsMax =  -7.94503351997378E-14  4.90692042349146E-01
 cg2d: Sum(rhs),rhsMax =  -5.11188313900846E-13  4.90640225362423E-01
 cg2d: Sum(rhs),rhsMax =   3.02119440576121E-14  4.90587041807338E-01
 cg2d: Sum(rhs),rhsMax =   2.46302978013091E-13  4.90533899612060E-01
 cg2d: Sum(rhs),rhsMax =  -1.32185928869433E-13  4.90482260171022E-01
 cg2d: Sum(rhs),rhsMax =  -1.32838184896400E-13  4.90433525523084E-01
 cg2d: Sum(rhs),rhsMax =  -3.46361828107433E-13  4.90389027518797E-01
 cg2d: Sum(rhs),rhsMax =  -2.51257348260481E-13  4.90350013796271E-01
 cg2d: Sum(rhs),rhsMax =   6.16173778666962E-15  4.90317618807432E-01
 cg2d: Sum(rhs),rhsMax =  -3.06143999040387E-14  4.90292850157623E-01
 cg2d: Sum(rhs),rhsMax =   2.15522044655359E-14  4.90276494218006E-01
 cg2d: Sum(rhs),rhsMax =  -2.77555756156289E-14  4.90269233267548E-01
 cg2d: Sum(rhs),rhsMax =  -4.47836212558173E-14  4.90271533639325E-01
 cg2d: Sum(rhs),rhsMax =  -4.37150315946155E-14  4.90283667668640E-01
 cg2d: Sum(rhs),rhsMax =   1.08968389866959E-13  4.90305713258602E-01
 cg2d: Sum(rhs),rhsMax =  -1.94386173824057E-13  4.90337584218794E-01
 cg2d: Sum(rhs),rhsMax =   1.88876692064355E-14  4.90378948761408E-01
 cg2d: Sum(rhs),rhsMax =  -1.64743219066565E-13  4.90429298882675E-01
 cg2d: Sum(rhs),rhsMax =   4.79338790881911E-14  4.90487982302433E-01
 cg2d: Sum(rhs),rhsMax =   9.38138455808257E-15  4.90554058264913E-01
 cg2d: Sum(rhs),rhsMax =   5.11118924961806E-14  4.90626798921904E-01
 cg2d: Sum(rhs),rhsMax =   1.24067423001861E-14  4.90705053609879E-01
 cg2d: Sum(rhs),rhsMax =   2.74405498323915E-13  4.90787643133323E-01
 cg2d: Sum(rhs),rhsMax =   2.98219782202125E-13  4.90873409755635E-01
 cg2d: Sum(rhs),rhsMax =   9.99200722162641E-15  4.90961214743842E-01
 cg2d: Sum(rhs),rhsMax =   1.69253500104105E-13  4.91049781609245E-01
 cg2d: Sum(rhs),rhsMax =  -1.40956690763971E-13  4.91138014494430E-01
 cg2d: Sum(rhs),rhsMax =   6.44345687916825E-14  4.91224802455095E-01
 cg2d: Sum(rhs),rhsMax =  -9.57567358739198E-14  4.91309144027222E-01
 cg2d: Sum(rhs),rhsMax =  -4.42701431069281E-14  4.91390129900940E-01
 cg2d: Sum(rhs),rhsMax =  -1.86073378927176E-13  4.91466964320022E-01
 cg2d: Sum(rhs),rhsMax =  -7.34967642301854E-14  4.91539000057071E-01
 cg2d: Sum(rhs),rhsMax =   8.95394869360189E-14  4.91605756038775E-01
 cg2d: Sum(rhs),rhsMax =   8.41687830543947E-14  4.91666866797748E-01
 cg2d: Sum(rhs),rhsMax =  -6.75570710484408E-14  4.91722127292556E-01
 cg2d: Sum(rhs),rhsMax =  -2.63095101260546E-13  4.91772502976065E-01
 cg2d: Sum(rhs),rhsMax =   1.38639100200066E-14  4.91817207151175E-01
 cg2d: Sum(rhs),rhsMax =  -2.68327027264093E-13  4.91856401042115E-01
 cg2d: Sum(rhs),rhsMax =   1.26246235687688E-13  4.91890498854071E-01
 cg2d: Sum(rhs),rhsMax =  -1.07983066932604E-13  4.91919955656858E-01
 cg2d: Sum(rhs),rhsMax =   7.73270336651422E-14  4.91945321745699E-01
 cg2d: Sum(rhs),rhsMax =   3.74672515235375E-13  4.91967245664542E-01
 cg2d: Sum(rhs),rhsMax =   4.38815650483093E-14  4.91986441504906E-01
 cg2d: Sum(rhs),rhsMax =   2.07528438878057E-13  4.92003764080979E-01
 cg2d: Sum(rhs),rhsMax =   3.83110210222526E-13  4.92020109107740E-01
 cg2d: Sum(rhs),rhsMax =   1.70100045160382E-13  4.92036319266568E-01
 cg2d: Sum(rhs),rhsMax =  -1.59330881821518E-13  4.92053215615330E-01
 cg2d: Sum(rhs),rhsMax =  -8.46406278398604E-14  4.92071587562862E-01
 cg2d: Sum(rhs),rhsMax =   7.57310880672435E-14  4.92092126850272E-01
 cg2d: Sum(rhs),rhsMax =  -2.29996577338909E-13  4.92115462705118E-01
 cg2d: Sum(rhs),rhsMax =  -1.56957780106382E-13  4.92142114330627E-01
 cg2d: Sum(rhs),rhsMax =  -2.73892020175026E-13  4.92172477287490E-01
 cg2d: Sum(rhs),rhsMax =   3.26558224905682E-13  4.92206824599854E-01
 cg2d: Sum(rhs),rhsMax =   7.44265760133089E-14  4.92245290333973E-01
 cg2d: Sum(rhs),rhsMax =   1.11924358670024E-13  4.92287874057534E-01
 cg2d: Sum(rhs),rhsMax =  -9.14129882900738E-14  4.92334357258600E-01
 cg2d: Sum(rhs),rhsMax =  -1.80452874865011E-13  4.92384373813213E-01
 cg2d: Sum(rhs),rhsMax =   1.65867319878998E-13  4.92437559573306E-01
 cg2d: Sum(rhs),rhsMax =  -1.47451495458029E-13  4.92493316816863E-01
 cg2d: Sum(rhs),rhsMax =  -7.16232628761304E-14  4.92551077097673E-01
 cg2d: Sum(rhs),rhsMax =   1.02196029416746E-13  4.92610139744840E-01
 cg2d: Sum(rhs),rhsMax =   9.22872889219661E-14  4.92669725046080E-01
 cg2d: Sum(rhs),rhsMax =  -3.00037772404949E-14  4.92729064167360E-01
 cg2d: Sum(rhs),rhsMax =   1.05901398761432E-13  4.92787376374044E-01
 cg2d: Sum(rhs),rhsMax =   4.15500966965965E-14  4.92843874800641E-01
 cg2d: Sum(rhs),rhsMax =   3.86218834691476E-14  4.92897791086272E-01
 cg2d: Sum(rhs),rhsMax =   1.74568692834498E-13  4.92948418977994E-01
 cg2d: Sum(rhs),rhsMax =   1.06720188242093E-13  4.92995102724776E-01
 cg2d: Sum(rhs),rhsMax =   2.12621587003525E-13  4.93037254228282E-01
 cg2d: Sum(rhs),rhsMax =  -1.61162749812149E-13  4.93074388412135E-01
 cg2d: Sum(rhs),rhsMax =  -1.02182151628938E-13  4.93106129432981E-01
 cg2d: Sum(rhs),rhsMax =   1.40748523946854E-13  4.93132217862160E-01
 cg2d: Sum(rhs),rhsMax =   2.07278638697517E-13  4.93152530392980E-01
 cg2d: Sum(rhs),rhsMax =  -2.31481500634345E-14  4.93167022913382E-01
 cg2d: Sum(rhs),rhsMax =   3.30291349825984E-14  4.93175789250953E-01
 cg2d: Sum(rhs),rhsMax =   3.68732822053630E-14  4.93179067465897E-01
 cg2d: Sum(rhs),rhsMax =  -1.71737624121704E-13  4.93177187371212E-01
 cg2d: Sum(rhs),rhsMax =   9.17044218340379E-14  4.93170570933755E-01
 cg2d: Sum(rhs),rhsMax =  -2.06501482580279E-14  4.93159759294607E-01
 cg2d: Sum(rhs),rhsMax =   8.59451398937949E-14  4.93145375150581E-01
 cg2d: Sum(rhs),rhsMax =  -2.88033485951189E-13  4.93128043715598E-01
 cg2d: Sum(rhs),rhsMax =  -2.32730501537048E-14  4.93108429878139E-01
 cg2d: Sum(rhs),rhsMax =  -3.13749026759069E-13  4.93087229498963E-01
 cg2d: Sum(rhs),rhsMax =   1.73042136175638E-13  4.93065226062013E-01
 cg2d: Sum(rhs),rhsMax =   3.54161144855425E-13  4.93043201595684E-01
 cg2d: Sum(rhs),rhsMax =  -1.94136373643516E-13  4.93021908286616E-01
 cg2d: Sum(rhs),rhsMax =  -4.22856194504106E-14  4.93002077510050E-01
 cg2d: Sum(rhs),rhsMax =  -4.84612350248881E-14  4.92984372020631E-01
 cg2d: Sum(rhs),rhsMax =   1.39846467739346E-13  4.92969424793205E-01
 cg2d: Sum(rhs),rhsMax =   3.46250805804971E-14  4.92957662031387E-01
 cg2d: Sum(rhs),rhsMax =   1.42413858483792E-13  4.92949502568336E-01
 cg2d: Sum(rhs),rhsMax =  -9.72832925327793E-15  4.92945142629519E-01
 cg2d: Sum(rhs),rhsMax =  -9.36889454905554E-14  4.92944750725923E-01
 cg2d: Sum(rhs),rhsMax =  -5.35821387259716E-14  4.92948386098281E-01
 cg2d: Sum(rhs),rhsMax =  -2.54615772909972E-13  4.92956001143162E-01
 cg2d: Sum(rhs),rhsMax =  -1.44259604262231E-13  4.92967424499622E-01
 cg2d: Sum(rhs),rhsMax =  -1.45730649769860E-13  4.92982399759771E-01
 cg2d: Sum(rhs),rhsMax =   5.39568389967826E-14  4.93000573667585E-01
 cg2d: Sum(rhs),rhsMax =   5.63576962875345E-14  4.93021452665440E-01
 cg2d: Sum(rhs),rhsMax =   4.57273108267486E-14  4.93044511692203E-01
 cg2d: Sum(rhs),rhsMax =   3.01564329063808E-14  4.93056951941244E-01
 cg2d: Sum(rhs),rhsMax =  -3.40005801291454E-14  4.93029829158128E-01
 cg2d: Sum(rhs),rhsMax =   1.03847486165876E-13  4.93001066712317E-01
 cg2d: Sum(rhs),rhsMax =  -1.83575377121770E-13  4.92971724200491E-01
 cg2d: Sum(rhs),rhsMax =   1.62175828322120E-13  4.92940944195644E-01
 cg2d: Sum(rhs),rhsMax =   1.94524951702135E-13  4.92908320234402E-01
 cg2d: Sum(rhs),rhsMax =   1.10605968828281E-13  4.92873450757020E-01
 cg2d: Sum(rhs),rhsMax =  -1.03847486165876E-13  4.92835989590017E-01
 cg2d: Sum(rhs),rhsMax =  -5.63993296509580E-14  4.92795535443248E-01
 cg2d: Sum(rhs),rhsMax =  -1.28091981466127E-14  4.92751913608187E-01
 cg2d: Sum(rhs),rhsMax =   9.95870053088765E-14  4.92704940594640E-01
 cg2d: Sum(rhs),rhsMax =  -5.49976730823687E-14  4.92654503900734E-01
 cg2d: Sum(rhs),rhsMax =   2.62984078958084E-13  4.92600524234593E-01
 cg2d: Sum(rhs),rhsMax =   7.36771754716870E-14  4.92543062279259E-01
 cg2d: Sum(rhs),rhsMax =  -2.25625074179447E-13  4.92481803761656E-01
 cg2d: Sum(rhs),rhsMax =  -1.60427227058335E-13  4.92416760045182E-01
 cg2d: Sum(rhs),rhsMax =   2.04419814409107E-13  4.92348271197520E-01
 cg2d: Sum(rhs),rhsMax =  -5.44286837822483E-14  4.92276702424330E-01
 cg2d: Sum(rhs),rhsMax =  -2.42153519458554E-13  4.92202422554299E-01
 cg2d: Sum(rhs),rhsMax =  -2.03975725199257E-13  4.92125812540307E-01
 cg2d: Sum(rhs),rhsMax =  -3.89271948009196E-14  4.92047343985938E-01
 cg2d: Sum(rhs),rhsMax =  -1.86572979288258E-13  4.91967491902481E-01
 cg2d: Sum(rhs),rhsMax =  -3.74700270810990E-16  4.91886768601492E-01
 cg2d: Sum(rhs),rhsMax =   3.65540930857833E-14  4.91805670487581E-01
 cg2d: Sum(rhs),rhsMax =   1.35169653248113E-13  4.91724336322293E-01
 cg2d: Sum(rhs),rhsMax =   2.08971728810070E-13  4.91642867268061E-01
 cg2d: Sum(rhs),rhsMax =   2.29399832463173E-14  4.91561577992762E-01
 cg2d: Sum(rhs),rhsMax =  -5.21110932183433E-14  4.91480774255454E-01
 cg2d: Sum(rhs),rhsMax =  -8.73884298258076E-14  4.91400693082907E-01
 cg2d: Sum(rhs),rhsMax =   1.55292445569444E-13  4.91321548620320E-01
 cg2d: Sum(rhs),rhsMax =   4.17860190893293E-14  4.91243499063449E-01
 cg2d: Sum(rhs),rhsMax =   2.48912002120960E-13  4.91166663924235E-01
 cg2d: Sum(rhs),rhsMax =   1.47146184126257E-13  4.91091134446482E-01
 cg2d: Sum(rhs),rhsMax =  -4.88220575078913E-14  4.91016853224315E-01
 cg2d: Sum(rhs),rhsMax =  -1.74860126378462E-15  4.90943779320751E-01
 cg2d: Sum(rhs),rhsMax =  -1.86239912380870E-13  4.90871868733334E-01
 cg2d: Sum(rhs),rhsMax =  -6.08263439616508E-14  4.90801109467100E-01
 cg2d: Sum(rhs),rhsMax =   4.30350199920326E-14  4.90731461701132E-01
 cg2d: Sum(rhs),rhsMax =  -6.12565553836930E-14  4.90662907691664E-01
 cg2d: Sum(rhs),rhsMax =   2.55420684602825E-13  4.90595442556385E-01
 cg2d: Sum(rhs),rhsMax =  -6.50313136674185E-14  4.90529079224740E-01
 cg2d: Sum(rhs),rhsMax =  -1.43524081508417E-13  4.90463862246516E-01
 cg2d: Sum(rhs),rhsMax =  -2.30801489031762E-13  4.90399813237824E-01
 cg2d: Sum(rhs),rhsMax =   7.93809462606987E-14  4.90337000116659E-01
 cg2d: Sum(rhs),rhsMax =  -5.29298826990043E-14  4.90275546819324E-01
 cg2d: Sum(rhs),rhsMax =   8.76798633697717E-14  4.90215606135703E-01
 cg2d: Sum(rhs),rhsMax =  -6.86117829218347E-14  4.90157333839773E-01
 cg2d: Sum(rhs),rhsMax =   1.30423449817840E-13  4.90100919817118E-01
 cg2d: Sum(rhs),rhsMax =   2.68216004961630E-13  4.90046569404142E-01
 cg2d: Sum(rhs),rhsMax =   1.76289538522667E-13  4.89994504160621E-01
 cg2d: Sum(rhs),rhsMax =   7.56894547038200E-14  4.89944942630619E-01
 cg2d: Sum(rhs),rhsMax =  -4.73787675758786E-14  4.89898115049578E-01
 cg2d: Sum(rhs),rhsMax =  -3.49165141244612E-14  4.89852217535843E-01
 cg2d: Sum(rhs),rhsMax =  -2.53991272458620E-13  4.89814289481391E-01
 cg2d: Sum(rhs),rhsMax =   4.48113768314329E-14  4.89779996093348E-01
 cg2d: Sum(rhs),rhsMax =   7.76739783603375E-14  4.89748592059374E-01
 cg2d: Sum(rhs),rhsMax =  -2.42042497156092E-13  4.89720188501278E-01
 cg2d: Sum(rhs),rhsMax =   1.23373533611471E-13  4.89694914248175E-01
 cg2d: Sum(rhs),rhsMax =   4.76563233320348E-14  4.89672820827045E-01
 cg2d: Sum(rhs),rhsMax =   3.21687121385139E-14  4.89653923612684E-01
 cg2d: Sum(rhs),rhsMax =  -1.02834407655905E-13  4.89638151914911E-01
 cg2d: Sum(rhs),rhsMax =  -2.11816675310672E-13  4.89625365001420E-01
 cg2d: Sum(rhs),rhsMax =   4.54913884340158E-14  4.89615322027680E-01
 cg2d: Sum(rhs),rhsMax =   1.47618028911722E-13  4.89607418444278E-01
 cg2d: Sum(rhs),rhsMax =  -1.50157664080552E-14  4.89600983024698E-01
 cg2d: Sum(rhs),rhsMax =   1.64271374281100E-13  4.89594941056479E-01
 cg2d: Sum(rhs),rhsMax =   2.57294185956880E-13  4.89589885748940E-01
 cg2d: Sum(rhs),rhsMax =  -1.76803016671556E-13  4.89586567814665E-01
 cg2d: Sum(rhs),rhsMax =  -6.74321709581704E-14  4.89582059409447E-01
 cg2d: Sum(rhs),rhsMax =  -2.68354782839708E-13  4.89575520771382E-01
 cg2d: Sum(rhs),rhsMax =  -1.47867829092263E-13  4.89566223916638E-01
 cg2d: Sum(rhs),rhsMax =   3.63181706930504E-14  4.89553345074826E-01
 cg2d: Sum(rhs),rhsMax =  -6.43374242770278E-14  4.89536141425126E-01
 cg2d: Sum(rhs),rhsMax =   1.11952114245639E-13  4.89513899836584E-01
 cg2d: Sum(rhs),rhsMax =   2.12940776123105E-13  4.89485940064388E-01
 cg2d: Sum(rhs),rhsMax =   5.52335954751015E-15  4.89451650320391E-01
 cg2d: Sum(rhs),rhsMax =  -8.16013923099490E-15  4.89410656558963E-01
 cg2d: Sum(rhs),rhsMax =  -4.27907709266151E-13  4.89362617609027E-01
 cg2d: Sum(rhs),rhsMax =   7.13318293321663E-14  4.89307353809670E-01
 cg2d: Sum(rhs),rhsMax =   5.68989300120393E-15  4.89244787849862E-01
 cg2d: Sum(rhs),rhsMax =  -1.07844289054526E-13  4.89174988311080E-01
 cg2d: Sum(rhs),rhsMax =  -2.18547402397462E-13  4.89098116804420E-01
 cg2d: Sum(rhs),rhsMax =  -3.84692278032617E-14  4.89014486237352E-01
 cg2d: Sum(rhs),rhsMax =  -4.50611770119735E-14  4.88924601257701E-01
 cg2d: Sum(rhs),rhsMax =   6.66133814775094E-16  4.88829007423331E-01
 cg2d: Sum(rhs),rhsMax =   5.68295410730002E-14  4.88728385399688E-01
 cg2d: Sum(rhs),rhsMax =  -2.90045765183322E-14  4.88623303870555E-01
 cg2d: Sum(rhs),rhsMax =  -5.31102939405059E-14  4.88514737969321E-01
 cg2d: Sum(rhs),rhsMax =   5.34294830600857E-15  4.88403540647585E-01
 cg2d: Sum(rhs),rhsMax =   1.58886792611668E-13  4.88290762744044E-01
 cg2d: Sum(rhs),rhsMax =   3.69454467019636E-13  4.88177344086333E-01
 cg2d: Sum(rhs),rhsMax =   3.06435432584351E-13  4.88064637180391E-01
 cg2d: Sum(rhs),rhsMax =  -1.24122934153093E-13  4.87952420412040E-01
 cg2d: Sum(rhs),rhsMax =  -1.50324197534246E-13  4.87841977648855E-01
 cg2d: Sum(rhs),rhsMax =  -6.66133814775094E-16  4.87734358091925E-01
 cg2d: Sum(rhs),rhsMax =  -1.06525899212784E-13  4.87630457765100E-01
 cg2d: Sum(rhs),rhsMax =  -2.06695771609589E-13  4.87530947539300E-01
 cg2d: Sum(rhs),rhsMax =  -4.93632912323960E-14  4.87436562556150E-01
 cg2d: Sum(rhs),rhsMax =  -9.61314361447307E-14  4.87347760034436E-01
 cg2d: Sum(rhs),rhsMax =   7.36910532594948E-15  4.87265012426156E-01
 cg2d: Sum(rhs),rhsMax =   1.05054853705155E-14  4.87188442802775E-01
 cg2d: Sum(rhs),rhsMax =   6.80011602582908E-16  4.87118180691113E-01
 cg2d: Sum(rhs),rhsMax =   3.97321064937728E-14  4.87053986649560E-01
 cg2d: Sum(rhs),rhsMax =  -3.85996790086551E-13  4.86995569018525E-01
 cg2d: Sum(rhs),rhsMax =  -7.57172102794357E-14  4.86942182351059E-01
 cg2d: Sum(rhs),rhsMax =  -7.41767758327683E-14  4.86892680643287E-01
 cg2d: Sum(rhs),rhsMax =  -8.77631300966186E-14  4.86846089157034E-01
 cg2d: Sum(rhs),rhsMax =   1.09259823410923E-13  4.86801447641155E-01
 cg2d: Sum(rhs),rhsMax =   1.00752739484733E-13  4.86757659299971E-01
 cg2d: Sum(rhs),rhsMax =  -2.16784923345870E-13  4.86713542880270E-01
 cg2d: Sum(rhs),rhsMax =  -2.21669904654220E-13  4.86668193244290E-01
 cg2d: Sum(rhs),rhsMax =   1.52225454463917E-13  4.86619124187425E-01
 cg2d: Sum(rhs),rhsMax =  -2.33216224110322E-13  4.86566059657485E-01
 cg2d: Sum(rhs),rhsMax =   5.16114928572620E-14  4.86507499331467E-01
 cg2d: Sum(rhs),rhsMax =   9.51044798469525E-14  4.86442392434965E-01
 cg2d: Sum(rhs),rhsMax =  -1.42108547152020E-13  4.86368900856108E-01
 cg2d: Sum(rhs),rhsMax =  -1.61981539292810E-13  4.86287930694699E-01
 cg2d: Sum(rhs),rhsMax =  -1.80369608138164E-13  4.86197263504350E-01
 cg2d: Sum(rhs),rhsMax =   9.82269821037107E-14  4.86096651456669E-01
 cg2d: Sum(rhs),rhsMax =  -1.04291575375726E-13  4.85985646858814E-01
 cg2d: Sum(rhs),rhsMax =  -1.15976672709905E-13  4.85863899509769E-01
 cg2d: Sum(rhs),rhsMax =  -2.77958212002716E-13  4.85731405333375E-01
 cg2d: Sum(rhs),rhsMax =   2.03517758201599E-13  4.85588376046381E-01
 cg2d: Sum(rhs),rhsMax =   9.92400606136812E-14  4.85435237816154E-01
 cg2d: Sum(rhs),rhsMax =   2.50049980721201E-13  4.85272625773244E-01
 cg2d: Sum(rhs),rhsMax =  -1.43079992298567E-14  4.85101389671244E-01
 cg2d: Sum(rhs),rhsMax =  -1.54334878210705E-13  4.84922550531768E-01
 cg2d: Sum(rhs),rhsMax =   1.04014019619569E-13  4.84736865296017E-01
 cg2d: Sum(rhs),rhsMax =   9.38138455808257E-15  4.84545547519172E-01
 cg2d: Sum(rhs),rhsMax =   7.24142967811758E-14  4.84350100417656E-01
 cg2d: Sum(rhs),rhsMax =   2.86243251323981E-13  4.84152097525320E-01
 cg2d: Sum(rhs),rhsMax =   1.01682551267857E-13  4.83953172552405E-01
 cg2d: Sum(rhs),rhsMax =  -1.29618538124987E-14  4.83755099295178E-01
 cg2d: Sum(rhs),rhsMax =   2.54227194851353E-13  4.83559659124857E-01
 cg2d: Sum(rhs),rhsMax =   1.59094959428785E-13  4.83368620211717E-01
 cg2d: Sum(rhs),rhsMax =  -2.59139931735319E-13  4.83183659426805E-01
 cg2d: Sum(rhs),rhsMax =  -2.99454905317020E-13  4.83006373918486E-01
 cg2d: Sum(rhs),rhsMax =  -9.49240686054509E-14  4.82838267430751E-01
 cg2d: Sum(rhs),rhsMax =  -9.38277233686335E-14  4.82680619905185E-01
 cg2d: Sum(rhs),rhsMax =   4.53387327681298E-14  4.82534672971731E-01
 cg2d: Sum(rhs),rhsMax =  -1.25066623724024E-13  4.82401378102454E-01
 cg2d: Sum(rhs),rhsMax =   6.00214322687975E-14  4.82281509869450E-01
 cg2d: Sum(rhs),rhsMax =  -2.72698530423554E-14  4.82175559264073E-01
 cg2d: Sum(rhs),rhsMax =   1.73500103173296E-13  4.82083808600846E-01
 cg2d: Sum(rhs),rhsMax =  -2.13329354181724E-13  4.82005991672255E-01
 cg2d: Sum(rhs),rhsMax =   1.07969189144796E-14  4.81941383914010E-01
 cg2d: Sum(rhs),rhsMax =  -1.44509404442772E-13  4.81890001220129E-01
 cg2d: Sum(rhs),rhsMax =  -1.08316133839992E-13  4.81850792363231E-01
 cg2d: Sum(rhs),rhsMax =   6.00075544809897E-14  4.81822998185893E-01
 cg2d: Sum(rhs),rhsMax =  -2.35880759369422E-13  4.81805467951774E-01
 cg2d: Sum(rhs),rhsMax =   1.58206781009085E-15  4.81796838678165E-01
 cg2d: Sum(rhs),rhsMax =   1.11216591491825E-13  4.81795779875922E-01
 cg2d: Sum(rhs),rhsMax =  -3.51246809415784E-14  4.81800828523909E-01
 cg2d: Sum(rhs),rhsMax =   6.41153796721028E-15  4.81810467266971E-01
 cg2d: Sum(rhs),rhsMax =  -9.06080765972206E-14  4.81823135032891E-01
 cg2d: Sum(rhs),rhsMax =   1.90555904389100E-13  4.81837239733562E-01
 cg2d: Sum(rhs),rhsMax =   1.60899071843801E-13  4.81851180540440E-01
 cg2d: Sum(rhs),rhsMax =   2.46705433859518E-13  4.81863486846972E-01
 cg2d: Sum(rhs),rhsMax =   1.70613523309271E-13  4.81872706952720E-01
 cg2d: Sum(rhs),rhsMax =  -5.62050406216485E-14  4.81878502545123E-01
 cg2d: Sum(rhs),rhsMax =   8.31973379078477E-14  4.81876207334295E-01
 cg2d: Sum(rhs),rhsMax =   1.76234027371436E-13  4.81869924931433E-01
 cg2d: Sum(rhs),rhsMax =   2.75751643741273E-14  4.81853215698804E-01
 cg2d: Sum(rhs),rhsMax =  -1.79897763352699E-13  4.81830322938036E-01
 cg2d: Sum(rhs),rhsMax =   8.64169846792606E-14  4.81794826243502E-01
 cg2d: Sum(rhs),rhsMax =  -7.64804886088655E-14  4.81752143037802E-01
 cg2d: Sum(rhs),rhsMax =  -5.51156342787351E-13  4.81696220282580E-01
 cg2d: Sum(rhs),rhsMax =   2.13509765423225E-13  4.81632901610915E-01
 cg2d: Sum(rhs),rhsMax =  -1.41275879883551E-14  4.81556414220654E-01
 cg2d: Sum(rhs),rhsMax =   1.42094669364212E-13  4.81472961425147E-01
 cg2d: Sum(rhs),rhsMax =   1.26454402504805E-13  4.81377324388558E-01
 cg2d: Sum(rhs),rhsMax =   1.28910770946788E-13  4.81275872127385E-01
 cg2d: Sum(rhs),rhsMax =   2.48301379457416E-13  4.81163836437100E-01
 cg2d: Sum(rhs),rhsMax =  -1.27384214287929E-13  4.81047662784000E-01
 cg2d: Sum(rhs),rhsMax =  -2.42028619368284E-14  4.80923836219325E-01
 cg2d: Sum(rhs),rhsMax =   1.92290627865077E-13  4.80795648534312E-01
 cg2d: Sum(rhs),rhsMax =   2.27304286504193E-13  4.80663767867728E-01
 cg2d: Sum(rhs),rhsMax =  -2.02948768901479E-13  4.80529241726707E-01
 cg2d: Sum(rhs),rhsMax =   1.34753319613878E-14  4.80393150704243E-01
 cg2d: Sum(rhs),rhsMax =  -5.52474732629094E-14  4.80256548498588E-01
 cg2d: Sum(rhs),rhsMax =   1.26787469412193E-13  4.80120383400262E-01
 cg2d: Sum(rhs),rhsMax =   1.74540937258882E-13  4.79985513883814E-01
 cg2d: Sum(rhs),rhsMax =   3.63736818442817E-14  4.79852697757564E-01
 cg2d: Sum(rhs),rhsMax =  -9.26203558293537E-14  4.79722580801831E-01
 cg2d: Sum(rhs),rhsMax =   1.34101063586911E-13  4.79595663123534E-01
 cg2d: Sum(rhs),rhsMax =   1.08330011627800E-13  4.79472072161006E-01
 cg2d: Sum(rhs),rhsMax =  -2.10068074046887E-13  4.79351744659183E-01
 cg2d: Sum(rhs),rhsMax =  -8.92341756042470E-14  4.79234793342793E-01
 cg2d: Sum(rhs),rhsMax =   2.95014013218520E-13  4.79121184870502E-01
 cg2d: Sum(rhs),rhsMax =  -7.20534742981727E-14  4.79010813462325E-01
 cg2d: Sum(rhs),rhsMax =  -1.28383415010092E-13  4.78903438015123E-01
 cg2d: Sum(rhs),rhsMax =   2.20864992961367E-13  4.78798655880437E-01
 cg2d: Sum(rhs),rhsMax =  -2.25874874359988E-13  4.78696070086922E-01
 cg2d: Sum(rhs),rhsMax =  -1.72181713331554E-13  4.78595229532228E-01
 cg2d: Sum(rhs),rhsMax =  -1.70155556311613E-13  4.78495629736168E-01
 cg2d: Sum(rhs),rhsMax =   1.89362414637628E-13  4.78396724704196E-01
 cg2d: Sum(rhs),rhsMax =  -5.38596944821279E-14  4.78297949763514E-01
 cg2d: Sum(rhs),rhsMax =   1.78190795452338E-14  4.78198733251260E-01
 cg2d: Sum(rhs),rhsMax =   2.35908514945038E-13  4.78098510441765E-01
 cg2d: Sum(rhs),rhsMax =   1.10036979528161E-13  4.77996421131269E-01
 cg2d: Sum(rhs),rhsMax =   1.05193631583234E-14  4.77891410464513E-01
 cg2d: Sum(rhs),rhsMax =   1.05082609280771E-13  4.77783145451363E-01
 cg2d: Sum(rhs),rhsMax =  -1.50365830897670E-13  4.77671087751001E-01
 cg2d: Sum(rhs),rhsMax =   1.79051218296422E-13  4.77555065483909E-01
 cg2d: Sum(rhs),rhsMax =  -2.11039519193434E-13  4.77434698061764E-01
 cg2d: Sum(rhs),rhsMax =  -1.37265199207093E-13  4.77310003136184E-01
 cg2d: Sum(rhs),rhsMax =   5.09314812546791E-15  4.77180702901567E-01
 cg2d: Sum(rhs),rhsMax =  -2.62984078958084E-14  4.77046998654663E-01
 cg2d: Sum(rhs),rhsMax =   1.88724036398469E-13  4.76908898986361E-01
 cg2d: Sum(rhs),rhsMax =  -3.47347151041788E-13  4.76767013901669E-01
 cg2d: Sum(rhs),rhsMax =  -2.41737185824320E-13  4.76621376360412E-01
 cg2d: Sum(rhs),rhsMax =   1.38888900380607E-13  4.76472460938020E-01
 cg2d: Sum(rhs),rhsMax =  -2.01463845606042E-13  4.76320620071940E-01
 cg2d: Sum(rhs),rhsMax =  -2.77333711551364E-13  4.76166472534835E-01
 cg2d: Sum(rhs),rhsMax =   3.44169137633799E-15  4.76010431329785E-01
 cg2d: Sum(rhs),rhsMax =   4.82947015711943E-14  4.75853066204392E-01
 cg2d: Sum(rhs),rhsMax =   2.38975506050565E-14  4.75695002713981E-01
 cg2d: Sum(rhs),rhsMax =   6.98885394001536E-14  4.75536807835307E-01
 cg2d: Sum(rhs),rhsMax =  -8.24201817906101E-14  4.75379000039151E-01
 cg2d: Sum(rhs),rhsMax =  -2.78527201302836E-14  4.75222222131869E-01
 cg2d: Sum(rhs),rhsMax =  -3.04478664503449E-13  4.75066926607970E-01
 cg2d: Sum(rhs),rhsMax =  -5.97855098760647E-14  4.74913619462431E-01
 cg2d: Sum(rhs),rhsMax =  -2.10165218561542E-13  4.74762796399018E-01
 cg2d: Sum(rhs),rhsMax =  -1.60815805116954E-13  4.74614698742411E-01
 cg2d: Sum(rhs),rhsMax =  -6.04100103274163E-14  4.74469704433801E-01
 cg2d: Sum(rhs),rhsMax =   1.18668963544621E-13  4.74328182788656E-01
 cg2d: Sum(rhs),rhsMax =  -2.67841304690819E-15  4.74190315178469E-01
 cg2d: Sum(rhs),rhsMax =  -1.05096487068579E-13  4.74056236199342E-01
 cg2d: Sum(rhs),rhsMax =  -5.11396480717963E-14  4.73925965232195E-01
 cg2d: Sum(rhs),rhsMax =  -4.56273907545324E-13  4.73799634876179E-01
 cg2d: Sum(rhs),rhsMax =   3.60517171671404E-13  4.73677141233169E-01
 cg2d: Sum(rhs),rhsMax =   6.48092690624935E-15  4.73558397320838E-01
 cg2d: Sum(rhs),rhsMax =   1.55153667691366E-13  4.73443346157396E-01
 cg2d: Sum(rhs),rhsMax =  -3.09099967843451E-13  4.73331876769913E-01
 cg2d: Sum(rhs),rhsMax =  -5.09037256790634E-14  4.73223869767604E-01
 cg2d: Sum(rhs),rhsMax =   2.64677169070637E-13  4.73119186922798E-01
 cg2d: Sum(rhs),rhsMax =   8.38079605713915E-14  4.73017683139167E-01
 cg2d: Sum(rhs),rhsMax =  -2.74821831958150E-13  4.72919199261505E-01
 cg2d: Sum(rhs),rhsMax =   1.43871026203612E-13  4.72823564553141E-01
 cg2d: Sum(rhs),rhsMax =   4.24105195406810E-14  4.72730627981646E-01
 cg2d: Sum(rhs),rhsMax =  -8.12128142513302E-14  4.72640264588252E-01
 cg2d: Sum(rhs),rhsMax =  -1.59275370670287E-13  4.72552339932670E-01
 cg2d: Sum(rhs),rhsMax =   1.51184620378331E-13  4.72466591929934E-01
 cg2d: Sum(rhs),rhsMax =  -4.95298246860898E-14  4.72382858213015E-01
 cg2d: Sum(rhs),rhsMax =  -1.90417126511022E-13  4.72300970589086E-01
 cg2d: Sum(rhs),rhsMax =   1.98174809895590E-14  4.72220762062523E-01
 cg2d: Sum(rhs),rhsMax =  -2.06834549487667E-13  4.72142137880882E-01
 cg2d: Sum(rhs),rhsMax =  -2.16132667318902E-13  4.72068925895169E-01
 cg2d: Sum(rhs),rhsMax =  -6.38239461281387E-14  4.71998713586590E-01
 cg2d: Sum(rhs),rhsMax =   9.84906600720592E-14  4.71929506352649E-01
 cg2d: Sum(rhs),rhsMax =   2.77555756156289E-16  4.71861118150441E-01
 cg2d: Sum(rhs),rhsMax =   3.29736238313671E-14  4.71793144411330E-01
 cg2d: Sum(rhs),rhsMax =   5.71070968291565E-14  4.71725556056839E-01
 cg2d: Sum(rhs),rhsMax =  -1.03889119529299E-13  4.71658066022580E-01
 cg2d: Sum(rhs),rhsMax =  -7.11930514540882E-15  4.71590332751044E-01
 cg2d: Sum(rhs),rhsMax =   5.26662047306559E-14  4.71522053282936E-01
 cg2d: Sum(rhs),rhsMax =  -4.77118344832661E-14  4.71452903575760E-01
 cg2d: Sum(rhs),rhsMax =  -1.95538030212106E-14  4.71382510988347E-01
 cg2d: Sum(rhs),rhsMax =   2.86298762475212E-14  4.71310523143656E-01
 cg2d: Sum(rhs),rhsMax =  -4.60936844248749E-13  4.71236571509695E-01
 cg2d: Sum(rhs),rhsMax =  -5.81479309147426E-14  4.71160098586842E-01
 cg2d: Sum(rhs),rhsMax =  -4.80310236028458E-14  4.71080819905092E-01
 cg2d: Sum(rhs),rhsMax =  -1.04985464766116E-13  4.70998276928103E-01
 cg2d: Sum(rhs),rhsMax =  -3.37646577364126E-14  4.70912211638921E-01
 cg2d: Sum(rhs),rhsMax =   6.00908212078366E-14  4.70822208508828E-01
 cg2d: Sum(rhs),rhsMax =  -5.62605517728798E-14  4.70728088962369E-01
 cg2d: Sum(rhs),rhsMax =   2.59667287672016E-13  4.70629533147831E-01
 cg2d: Sum(rhs),rhsMax =   1.54501411664398E-13  4.70526457791958E-01
 cg2d: Sum(rhs),rhsMax =  -1.63549729315093E-13  4.70418631055902E-01
 cg2d: Sum(rhs),rhsMax =  -1.27994836951473E-13  4.70306070118631E-01
 cg2d: Sum(rhs),rhsMax =  -1.80591652743090E-13  4.70188687176556E-01
 cg2d: Sum(rhs),rhsMax =  -5.92581539393677E-14  4.70066744596651E-01
 cg2d: Sum(rhs),rhsMax =   6.84591272559487E-14  4.69940456114378E-01
 cg2d: Sum(rhs),rhsMax =  -8.62226956499512E-14  4.69810107647271E-01
 cg2d: Sum(rhs),rhsMax =  -1.46174738979710E-13  4.69676032701436E-01
 cg2d: Sum(rhs),rhsMax =   6.91530166463394E-14  4.69538622631500E-01
 cg2d: Sum(rhs),rhsMax =   1.14075415780235E-13  4.69398331645634E-01
 cg2d: Sum(rhs),rhsMax =  -1.97064586870965E-15  4.69255663230705E-01
 cg2d: Sum(rhs),rhsMax =  -3.59851037856629E-14  4.69111161590529E-01
 cg2d: Sum(rhs),rhsMax =   2.83467693762418E-13  4.68965361646919E-01
 cg2d: Sum(rhs),rhsMax =  -1.20348175869367E-13  4.68818790852181E-01
 cg2d: Sum(rhs),rhsMax =  -1.24247834243363E-13  4.68672028440098E-01
 cg2d: Sum(rhs),rhsMax =  -1.25205401602102E-13  4.68525671901013E-01
 cg2d: Sum(rhs),rhsMax =  -2.60555466091716E-13  4.68380278217674E-01
 cg2d: Sum(rhs),rhsMax =   2.76334510829201E-13  4.68236383124498E-01
 cg2d: Sum(rhs),rhsMax =  -1.07372444269060E-13  4.68094470693614E-01
 cg2d: Sum(rhs),rhsMax =  -4.86000129029662E-14  4.67954973659516E-01
 cg2d: Sum(rhs),rhsMax =   1.19765308781439E-13  4.67818248669873E-01
 cg2d: Sum(rhs),rhsMax =  -1.59205981731247E-13  4.67684579470061E-01
 cg2d: Sum(rhs),rhsMax =  -1.94760874094868E-13  4.67554178172651E-01
 cg2d: Sum(rhs),rhsMax =  -1.47423739882413E-13  4.67427131370763E-01
 cg2d: Sum(rhs),rhsMax =   3.80293019297540E-13  4.67303469624697E-01
 cg2d: Sum(rhs),rhsMax =   6.75293154728251E-14  4.67183112242308E-01
 cg2d: Sum(rhs),rhsMax =  -4.47836212558173E-14  4.67065875677911E-01
 cg2d: Sum(rhs),rhsMax =   2.50077736296817E-14  4.66951477538516E-01
 cg2d: Sum(rhs),rhsMax =  -1.77496906061947E-14  4.66839557916536E-01
 cg2d: Sum(rhs),rhsMax =   9.61314361447307E-14  4.66729662573640E-01
 cg2d: Sum(rhs),rhsMax =   7.79099007530704E-14  4.66621274066205E-01
 cg2d: Sum(rhs),rhsMax =  -2.52617371465647E-13  4.66513811502255E-01
 cg2d: Sum(rhs),rhsMax =  -1.81729631343330E-13  4.66406649033381E-01
 cg2d: Sum(rhs),rhsMax =   1.75692793646931E-13  4.66299155382968E-01
 cg2d: Sum(rhs),rhsMax =  -8.57647286522933E-14  4.66190614434817E-01
 cg2d: Sum(rhs),rhsMax =  -2.50577336657898E-13  4.66080414211437E-01
 cg2d: Sum(rhs),rhsMax =   3.65818486613989E-14  4.65968024736638E-01
 cg2d: Sum(rhs),rhsMax =  -6.82093270754081E-14  4.65852764808274E-01
 cg2d: Sum(rhs),rhsMax =   3.46209172441547E-13  4.65734049695040E-01
 cg2d: Sum(rhs),rhsMax =   2.19005369395120E-13  4.65611466147064E-01
 cg2d: Sum(rhs),rhsMax =   2.92002533264224E-13  4.65484653299409E-01
 cg2d: Sum(rhs),rhsMax =  -8.37802049957759E-14  4.65352306117421E-01
 cg2d: Sum(rhs),rhsMax =   1.30867539027690E-14  4.65215344830094E-01
 cg2d: Sum(rhs),rhsMax =  -1.60690905026684E-13  4.65073739491667E-01
 cg2d: Sum(rhs),rhsMax =  -8.92896867554782E-14  4.64927568654297E-01
 cg2d: Sum(rhs),rhsMax =   9.64922586277339E-14  4.64777074387299E-01
 cg2d: Sum(rhs),rhsMax =   8.65696403451466E-14  4.64622692408412E-01
 cg2d: Sum(rhs),rhsMax =   7.78543896018391E-15  4.64464872128292E-01
 cg2d: Sum(rhs),rhsMax =  -4.19442258703384E-13  4.64304100408640E-01
 cg2d: Sum(rhs),rhsMax =  -2.94611557372093E-13  4.64141096994298E-01
 cg2d: Sum(rhs),rhsMax =  -8.11989364635224E-14  4.63976650387670E-01
 cg2d: Sum(rhs),rhsMax =  -1.29424249095678E-13  4.63811637970709E-01
 cg2d: Sum(rhs),rhsMax =   2.52645127041262E-13  4.63646981667659E-01
 cg2d: Sum(rhs),rhsMax =   1.62148072746504E-13  4.63483637290995E-01
 cg2d: Sum(rhs),rhsMax =   2.74294476021453E-13  4.63322550210583E-01
 cg2d: Sum(rhs),rhsMax =   2.15688578109052E-13  4.63164673947833E-01
 cg2d: Sum(rhs),rhsMax =  -9.42995681540992E-14  4.63010944617526E-01
 cg2d: Sum(rhs),rhsMax =   6.12149220202696E-14  4.63103795537988E-01
 cg2d: Sum(rhs),rhsMax =  -5.08898478912556E-14  4.63392986589395E-01
 cg2d: Sum(rhs),rhsMax =  -4.79200013003833E-14  4.63679261005592E-01
 cg2d: Sum(rhs),rhsMax =  -2.35172992191224E-13  4.63962262374688E-01
 cg2d: Sum(rhs),rhsMax =   4.30697144615522E-13  4.64241689506424E-01
 cg2d: Sum(rhs),rhsMax =   2.77555756156289E-17  4.64517325964011E-01
 cg2d: Sum(rhs),rhsMax =  -7.59253770965529E-14  4.64789022638985E-01
 cg2d: Sum(rhs),rhsMax =  -6.08402217494586E-14  4.65056708983255E-01
 cg2d: Sum(rhs),rhsMax =   1.39041556046493E-13  4.65320379815493E-01
 cg2d: Sum(rhs),rhsMax =   4.99184027447086E-14  4.65580033471566E-01
 cg2d: Sum(rhs),rhsMax =   2.12330153459561E-13  4.65836045473330E-01
 cg2d: Sum(rhs),rhsMax =   1.46008205526016E-13  4.66088503536431E-01
 cg2d: Sum(rhs),rhsMax =  -4.65738558830253E-14  4.66338151923814E-01
 cg2d: Sum(rhs),rhsMax =  -6.13814554739633E-14  4.66584906564541E-01
 cg2d: Sum(rhs),rhsMax =   8.38773495104306E-14  4.66829071509010E-01
 cg2d: Sum(rhs),rhsMax =  -2.32716623749241E-13  4.67070997715332E-01
 cg2d: Sum(rhs),rhsMax =  -3.60309004854287E-13  4.67310976505414E-01
 cg2d: Sum(rhs),rhsMax =   5.83560977318598E-14  4.67549379012555E-01
 cg2d: Sum(rhs),rhsMax =  -1.41747724669017E-13  4.67786541569400E-01
 cg2d: Sum(rhs),rhsMax =  -1.88363213915466E-13  4.68022903952524E-01
 cg2d: Sum(rhs),rhsMax =  -1.53710377759353E-13  4.68258882245365E-01
 cg2d: Sum(rhs),rhsMax =   1.50490730987940E-13  4.68494865324156E-01
 cg2d: Sum(rhs),rhsMax =  -2.47912801398797E-13  4.68731204467556E-01
 cg2d: Sum(rhs),rhsMax =   7.42739203474230E-14  4.68968247778089E-01
 cg2d: Sum(rhs),rhsMax =  -1.84574577843932E-14  4.69206299109903E-01
 cg2d: Sum(rhs),rhsMax =  -4.23272528138341E-14  4.69445611907369E-01
 cg2d: Sum(rhs),rhsMax =  -5.71764857681956E-14  4.69686404421087E-01
 cg2d: Sum(rhs),rhsMax =  -2.02893257750247E-14  4.69928836862757E-01
 cg2d: Sum(rhs),rhsMax =  -5.87585535782864E-14  4.70173014034139E-01
 cg2d: Sum(rhs),rhsMax =  -1.91249793779491E-13  4.70418992017977E-01
 cg2d: Sum(rhs),rhsMax =  -5.73568970096971E-14  4.70666768705640E-01
 cg2d: Sum(rhs),rhsMax =   6.47398801234544E-14  4.70916294720847E-01
 cg2d: Sum(rhs),rhsMax =  -1.28327903858860E-13  4.71167512421822E-01
 cg2d: Sum(rhs),rhsMax =   2.82732171008604E-13  4.71420257216313E-01
 cg2d: Sum(rhs),rhsMax =  -2.50716114535976E-13  4.71674384449966E-01
 cg2d: Sum(rhs),rhsMax =  -2.53269627492614E-14  4.71929618218551E-01
 cg2d: Sum(rhs),rhsMax =  -1.36321509636161E-13  4.72185661270322E-01
 cg2d: Sum(rhs),rhsMax =  -8.12683254025615E-14  4.72442268747878E-01
 cg2d: Sum(rhs),rhsMax =   1.84852133600089E-14  4.72699157153488E-01
 cg2d: Sum(rhs),rhsMax =  -6.07985883860351E-14  4.72956150313602E-01
 cg2d: Sum(rhs),rhsMax =   6.82370826510237E-14  4.73213064763928E-01
 cg2d: Sum(rhs),rhsMax =   3.69912434017294E-13  4.73469722663503E-01
 cg2d: Sum(rhs),rhsMax =  -7.72021335748718E-14  4.73725978924853E-01
 cg2d: Sum(rhs),rhsMax =   2.77167178097670E-13  4.73981711597806E-01
 cg2d: Sum(rhs),rhsMax =  -1.66811009449930E-14  4.74236821541804E-01
 cg2d: Sum(rhs),rhsMax =  -1.89417925788860E-13  4.74491258946750E-01
 cg2d: Sum(rhs),rhsMax =  -3.43475248243408E-14  4.74745113482226E-01
 cg2d: Sum(rhs),rhsMax =  -2.25930385511219E-14  4.74999169952562E-01
 cg2d: Sum(rhs),rhsMax =  -1.14686038443779E-13  4.75252490400490E-01
 cg2d: Sum(rhs),rhsMax =   2.26416108084493E-13  4.75505300537042E-01
 cg2d: Sum(rhs),rhsMax =   2.14508966145388E-13  4.75757908505752E-01
 cg2d: Sum(rhs),rhsMax =  -4.21107593240322E-13  4.76010440025660E-01
 cg2d: Sum(rhs),rhsMax =   1.22082899345344E-13  4.76263017949968E-01
 cg2d: Sum(rhs),rhsMax =   1.86850535044414E-13  4.76515656604190E-01
 cg2d: Sum(rhs),rhsMax =  -1.03278496865755E-13  4.76768319905722E-01
 cg2d: Sum(rhs),rhsMax =   7.13318293321663E-15  4.77020629671127E-01
 cg2d: Sum(rhs),rhsMax =  -6.79872824704830E-14  4.77272913551104E-01
 cg2d: Sum(rhs),rhsMax =   1.98674410256672E-13  4.77525168209717E-01
 cg2d: Sum(rhs),rhsMax =  -3.31124017094453E-14  4.77777765046679E-01
 cg2d: Sum(rhs),rhsMax =   3.04548053442488E-13  4.78030507897933E-01
 cg2d: Sum(rhs),rhsMax =   5.52752288385250E-14  4.78282694194835E-01
 cg2d: Sum(rhs),rhsMax =   9.56179579958416E-14  4.78534447105862E-01
 cg2d: Sum(rhs),rhsMax =   3.91714438663371E-13  4.78785587027076E-01
 cg2d: Sum(rhs),rhsMax =   1.22082899345344E-13  4.79035855599708E-01
 cg2d: Sum(rhs),rhsMax =   1.44467771079348E-13  4.79284981193032E-01
 cg2d: Sum(rhs),rhsMax =  -4.91551244152788E-14  4.79532642699545E-01
 cg2d: Sum(rhs),rhsMax =   1.20181642415673E-13  4.79778488738034E-01
 cg2d: Sum(rhs),rhsMax =   4.75508521446955E-13  4.80022164105764E-01
 cg2d: Sum(rhs),rhsMax =   7.57310880672435E-14  4.80263392981173E-01
 cg2d: Sum(rhs),rhsMax =  -1.77205472517983E-13  4.80501866110477E-01
 cg2d: Sum(rhs),rhsMax =  -3.45029560477883E-13  4.80737272543451E-01
 cg2d: Sum(rhs),rhsMax =  -1.75873204888433E-13  4.80969313446407E-01
 cg2d: Sum(rhs),rhsMax =  -9.61869472959620E-14  4.81197694796536E-01
 cg2d: Sum(rhs),rhsMax =   2.89365753580739E-13  4.81422198378114E-01
 cg2d: Sum(rhs),rhsMax =  -6.86811718608737E-14  4.81642735700379E-01
 cg2d: Sum(rhs),rhsMax =   1.02806652080289E-13  4.81859013395538E-01
 cg2d: Sum(rhs),rhsMax =   2.92682544866807E-14  4.82070773917759E-01
 cg2d: Sum(rhs),rhsMax =   4.15223411209809E-14  4.82277939135909E-01
 cg2d: Sum(rhs),rhsMax =  -4.54497550705923E-14  4.82480479707780E-01
 cg2d: Sum(rhs),rhsMax =   1.26704202685346E-13  4.82678364556963E-01
 cg2d: Sum(rhs),rhsMax =   1.01529895601971E-13  4.82871703129450E-01
 cg2d: Sum(rhs),rhsMax =  -6.20753448643541E-14  4.83066533869008E-01
 cg2d: Sum(rhs),rhsMax =  -2.94597679584285E-13  4.83257266460548E-01
 cg2d: Sum(rhs),rhsMax =   3.47735729100407E-13  4.83443918533945E-01
 cg2d: Sum(rhs),rhsMax =  -1.40720768371239E-14  4.83626806386173E-01
 cg2d: Sum(rhs),rhsMax =   1.70863323489812E-13  4.83805887586408E-01
 cg2d: Sum(rhs),rhsMax =  -1.01876840297166E-13  4.83981535746748E-01
 cg2d: Sum(rhs),rhsMax =   1.41359146610398E-13  4.84154145073041E-01
 cg2d: Sum(rhs),rhsMax =  -9.43134459419070E-14  4.84324119176421E-01
 cg2d: Sum(rhs),rhsMax =  -1.22790666523542E-13  4.84491869522064E-01
 cg2d: Sum(rhs),rhsMax =   1.69780856040802E-13  4.84657739278324E-01
 cg2d: Sum(rhs),rhsMax =   9.92261828258734E-14  4.84822120125754E-01
 cg2d: Sum(rhs),rhsMax =   5.11674036474119E-14  4.84985313345270E-01
 cg2d: Sum(rhs),rhsMax =   1.16087695012368E-13  4.85147475402576E-01
 cg2d: Sum(rhs),rhsMax =  -6.14230888373868E-14  4.85309354846898E-01
 cg2d: Sum(rhs),rhsMax =   6.96109836439973E-14  4.85470653494245E-01
 cg2d: Sum(rhs),rhsMax =   7.05685510027365E-14  4.85632051388430E-01
 cg2d: Sum(rhs),rhsMax =  -4.15917300600199E-14  4.85793933674214E-01
 cg2d: Sum(rhs),rhsMax =  -8.16430256733724E-14  4.85955388547318E-01
 cg2d: Sum(rhs),rhsMax =   7.47041317694652E-14  4.86116920410975E-01
 cg2d: Sum(rhs),rhsMax =   8.87762086065891E-14  4.86278559510183E-01
 cg2d: Sum(rhs),rhsMax =   2.11969330976558E-13  4.86440233985397E-01
 cg2d: Sum(rhs),rhsMax =   1.96592742085500E-13  4.86601814366020E-01
 cg2d: Sum(rhs),rhsMax =  -1.08496545081493E-13  4.86763015319018E-01
 cg2d: Sum(rhs),rhsMax =   2.44484987810267E-13  4.86923623744924E-01
 cg2d: Sum(rhs),rhsMax =  -1.46230250130941E-13  4.87083392292604E-01
 cg2d: Sum(rhs),rhsMax =   6.41015018842950E-14  4.87241959551865E-01
 cg2d: Sum(rhs),rhsMax =  -1.30173649637300E-14  4.87398954823025E-01
 cg2d: Sum(rhs),rhsMax =   4.71844785465692E-15  4.87554061176830E-01
 cg2d: Sum(rhs),rhsMax =   7.30943083837587E-14  4.87707004496392E-01
 cg2d: Sum(rhs),rhsMax =  -3.27377014386343E-14  4.87859869825329E-01
 cg2d: Sum(rhs),rhsMax =   2.32591723658970E-14  4.88010497572693E-01
 cg2d: Sum(rhs),rhsMax =   2.21767049168875E-13  4.88158616157204E-01
 cg2d: Sum(rhs),rhsMax =   1.83186799063151E-14  4.88204690600416E-01
 cg2d: Sum(rhs),rhsMax =  -2.03601024928446E-13  4.88246446832975E-01
 cg2d: Sum(rhs),rhsMax =   7.50233208890450E-14  4.88286109383788E-01
 cg2d: Sum(rhs),rhsMax =  -6.11455330812305E-14  4.88323071557697E-01
 cg2d: Sum(rhs),rhsMax =   2.13301598606108E-14  4.88357620961486E-01
 cg2d: Sum(rhs),rhsMax =  -7.65359997600967E-14  4.88390054770141E-01
 cg2d: Sum(rhs),rhsMax =  -3.19355653033426E-13  4.88420619086282E-01
 cg2d: Sum(rhs),rhsMax =  -4.08423295183979E-14  4.88449494567769E-01
 cg2d: Sum(rhs),rhsMax =   2.37032615757471E-14  4.88476800277370E-01
 cg2d: Sum(rhs),rhsMax =  -2.57655008439883E-13  4.88502703141136E-01
 cg2d: Sum(rhs),rhsMax =   2.06876182851090E-13  4.88527413051126E-01
 cg2d: Sum(rhs),rhsMax =   1.94566585065559E-14  4.88551105295070E-01
 cg2d: Sum(rhs),rhsMax =   6.61137811164281E-14  4.88573991180664E-01
 cg2d: Sum(rhs),rhsMax =  -1.66894276176777E-13  4.88596085328736E-01
 cg2d: Sum(rhs),rhsMax =   5.10841369205650E-14  4.88617582032099E-01
 cg2d: Sum(rhs),rhsMax =   4.95575802617054E-14  4.88638620154114E-01
 cg2d: Sum(rhs),rhsMax =   2.81830114801096E-13  4.88659322627951E-01
 cg2d: Sum(rhs),rhsMax =   1.39277478439226E-13  4.88679516861499E-01
 cg2d: Sum(rhs),rhsMax =  -1.39610545346613E-14  4.88699533325303E-01
 cg2d: Sum(rhs),rhsMax =   5.75928194024300E-14  4.88719249359038E-01
 cg2d: Sum(rhs),rhsMax =  -6.08540995372664E-14  4.88738621145365E-01
 cg2d: Sum(rhs),rhsMax =   2.62428967445771E-14  4.88757611648686E-01
 cg2d: Sum(rhs),rhsMax =  -9.97257831869547E-14  4.88776131125145E-01
 cg2d: Sum(rhs),rhsMax =  -1.37070910177783E-13  4.88793877439420E-01
 cg2d: Sum(rhs),rhsMax =   9.07190988996831E-14  4.88810006212702E-01
 cg2d: Sum(rhs),rhsMax =  -1.68837166469871E-13  4.88824561044000E-01
 cg2d: Sum(rhs),rhsMax =   2.41098807585161E-13  4.88837615918387E-01
 cg2d: Sum(rhs),rhsMax =   1.21694321286725E-13  4.88849251034871E-01
 cg2d: Sum(rhs),rhsMax =   1.26870736139040E-13  4.88783114046394E-01
 cg2d: Sum(rhs),rhsMax =   1.99687488766642E-13  4.88626916027697E-01
 cg2d: Sum(rhs),rhsMax =   4.64905891561784E-15  4.88468082707333E-01
 cg2d: Sum(rhs),rhsMax =   1.81202275406633E-13  4.88307922949023E-01
 cg2d: Sum(rhs),rhsMax =   1.24011911850630E-13  4.88146026403999E-01
 cg2d: Sum(rhs),rhsMax =   1.78801418115881E-13  4.87981652734944E-01
 cg2d: Sum(rhs),rhsMax =   9.25648446781224E-15  4.87814650284995E-01
 cg2d: Sum(rhs),rhsMax =   5.50393064457921E-14  4.87645004756118E-01
 cg2d: Sum(rhs),rhsMax =   2.46080933408166E-13  4.87472690022216E-01
 cg2d: Sum(rhs),rhsMax =   1.52655665885959E-16  4.87297670011635E-01
 cg2d: Sum(rhs),rhsMax =  -4.50806059149045E-13  4.88116309197612E-01
 cg2d: Sum(rhs),rhsMax =  -3.23768789556311E-13  4.88957193066831E-01
 cg2d: Sum(rhs),rhsMax =  -1.74665837349153E-13  4.89783827497696E-01
 cg2d: Sum(rhs),rhsMax =  -7.78682673896469E-14  4.90594440876272E-01
 cg2d: Sum(rhs),rhsMax =  -6.89309720414144E-14  4.91389010249073E-01
 cg2d: Sum(rhs),rhsMax =   3.13776782334685E-14  4.92167225308636E-01
 cg2d: Sum(rhs),rhsMax =   5.44286837822483E-14  4.92929339018241E-01
 cg2d: Sum(rhs),rhsMax =  -1.44800837986736E-13  4.93675840018520E-01
 cg2d: Sum(rhs),rhsMax =  -1.09912079437890E-13  4.94407452735800E-01
 cg2d: Sum(rhs),rhsMax =  -6.76264599874798E-14  4.95125180406195E-01
 cg2d: Sum(rhs),rhsMax =   1.33920652345410E-13  4.95830093802419E-01
 cg2d: Sum(rhs),rhsMax =  -7.13318293321663E-15  4.96523313285031E-01
 cg2d: Sum(rhs),rhsMax =   9.17599329852692E-14  4.97206082301453E-01
 cg2d: Sum(rhs),rhsMax =  -2.79470890873768E-13  4.97879938572326E-01
 cg2d: Sum(rhs),rhsMax =  -1.70072289584766E-13  4.98546538252700E-01
 cg2d: Sum(rhs),rhsMax =   1.26204602324265E-13  4.99208027696819E-01
 cg2d: Sum(rhs),rhsMax =  -1.66255897937617E-13  4.99866247236126E-01
 cg2d: Sum(rhs),rhsMax =   4.76840789076505E-14  5.00522723697864E-01
 cg2d: Sum(rhs),rhsMax =  -1.40165656858926E-15  5.01192959835495E-01
 cg2d: Sum(rhs),rhsMax =  -2.93792767891432E-13  5.01864350664943E-01
 cg2d: Sum(rhs),rhsMax =  -1.05193631583234E-13  5.02537057180615E-01
 cg2d: Sum(rhs),rhsMax =   1.10661479979512E-13  5.03212661254945E-01
 cg2d: Sum(rhs),rhsMax =  -5.24580379135386E-15  5.03891759768288E-01
 cg2d: Sum(rhs),rhsMax =  -8.25728374564960E-15  5.04574761415373E-01
 cg2d: Sum(rhs),rhsMax =  -2.58543186859583E-14  5.05261964565160E-01
 cg2d: Sum(rhs),rhsMax =  -9.75053371377044E-14  5.05953450128574E-01
 cg2d: Sum(rhs),rhsMax =  -6.10622663543836E-16  5.06649112647846E-01
 cg2d: Sum(rhs),rhsMax =  -3.87051501959945E-14  5.07348467533373E-01
 cg2d: Sum(rhs),rhsMax =   8.24063040028022E-14  5.08050894935575E-01
 cg2d: Sum(rhs),rhsMax =   1.29687927064026E-13  5.08755392565220E-01
 cg2d: Sum(rhs),rhsMax =  -2.29344321311942E-13  5.09461056819481E-01
 cg2d: Sum(rhs),rhsMax =  -1.48839274238810E-13  5.10166910660717E-01
 cg2d: Sum(rhs),rhsMax =  -1.96273552965920E-13  5.10872369120132E-01
 cg2d: Sum(rhs),rhsMax =  -6.41431352477184E-14  5.11574629717530E-01
 cg2d: Sum(rhs),rhsMax =   8.03940247706691E-14  5.12272575488916E-01
 cg2d: Sum(rhs),rhsMax =  -1.49033563268119E-13  5.12965214460853E-01
 cg2d: Sum(rhs),rhsMax =  -9.82131043159029E-14  5.13651574639696E-01
 cg2d: Sum(rhs),rhsMax =  -8.05466804365551E-14  5.14331609413486E-01
 cg2d: Sum(rhs),rhsMax =  -1.19765308781439E-14  5.15004820116627E-01
 cg2d: Sum(rhs),rhsMax =   2.89365753580739E-13  5.15625488706731E-01
 cg2d: Sum(rhs),rhsMax =   2.70575228888958E-13  5.16238084662464E-01
 cg2d: Sum(rhs),rhsMax =   8.25867152443038E-14  5.16843212331825E-01
 cg2d: Sum(rhs),rhsMax =   1.93775551160513E-13  5.17440334930835E-01
 cg2d: Sum(rhs),rhsMax =  -7.03742619734271E-14  5.18029402865468E-01
 cg2d: Sum(rhs),rhsMax =  -2.27998175894584E-13  5.18610736627096E-01
 cg2d: Sum(rhs),rhsMax =  -1.04666275646537E-13  5.19184863563444E-01
 cg2d: Sum(rhs),rhsMax =  -1.49949497263435E-13  5.19752426120951E-01
 cg2d: Sum(rhs),rhsMax =  -1.97064586870965E-14  5.20314273479383E-01
 cg2d: Sum(rhs),rhsMax =  -2.14564477296619E-13  5.20870205953838E-01
 cg2d: Sum(rhs),rhsMax =  -4.35762537165374E-15  5.21421593372731E-01
 cg2d: Sum(rhs),rhsMax =   2.14217532601424E-13  5.21969195208839E-01
 cg2d: Sum(rhs),rhsMax =   9.01084762361393E-14  5.22513806380472E-01
 cg2d: Sum(rhs),rhsMax =  -3.45834472170736E-14  5.23055615960551E-01
 cg2d: Sum(rhs),rhsMax =   8.89427420602829E-14  5.23595915310361E-01
 cg2d: Sum(rhs),rhsMax =  -6.88199497389519E-14  5.24136618314321E-01
 cg2d: Sum(rhs),rhsMax =  -1.20486953747445E-13  5.24678415797567E-01
 cg2d: Sum(rhs),rhsMax =  -1.91291427142914E-13  5.25221903621602E-01
 cg2d: Sum(rhs),rhsMax =   1.03791975014644E-13  5.25767757419618E-01
 cg2d: Sum(rhs),rhsMax =  -6.36851682500605E-14  5.26316583665829E-01
 cg2d: Sum(rhs),rhsMax =  -4.40064651385796E-14  5.26868334054772E-01
 cg2d: Sum(rhs),rhsMax =   4.75036676661489E-14  5.27422498821280E-01
 cg2d: Sum(rhs),rhsMax =   4.82947015711943E-14  5.27978999404393E-01
 cg2d: Sum(rhs),rhsMax =  -8.13238365537927E-15  5.28537580986628E-01
 cg2d: Sum(rhs),rhsMax =  -1.48894785390041E-13  5.29097824932862E-01
 cg2d: Sum(rhs),rhsMax =  -1.17184040249185E-13  5.29659086227953E-01
 cg2d: Sum(rhs),rhsMax =  -1.12659881423838E-13  5.30220568292348E-01
 cg2d: Sum(rhs),rhsMax =  -3.12971870641832E-13  5.30781481462539E-01
 cg2d: Sum(rhs),rhsMax =  -1.45911061011361E-13  5.31341022858189E-01
 cg2d: Sum(rhs),rhsMax =  -2.06515360368087E-13  5.31897944903546E-01
 cg2d: Sum(rhs),rhsMax =  -4.48807657704720E-14  5.32451184134177E-01
 cg2d: Sum(rhs),rhsMax =   1.12604370272607E-13  5.32999379171147E-01
 cg2d: Sum(rhs),rhsMax =   1.07802655691103E-13  5.33541069002544E-01
 cg2d: Sum(rhs),rhsMax =  -1.31977762052315E-13  5.34074966549455E-01
 cg2d: Sum(rhs),rhsMax =   9.00668428727158E-15  5.34599920433120E-01
 cg2d: Sum(rhs),rhsMax =   1.93359217526279E-13  5.35115540757656E-01
 cg2d: Sum(rhs),rhsMax =  -2.74780198594726E-14  5.35624882209214E-01
 cg2d: Sum(rhs),rhsMax =  -1.69142477801643E-13  5.36122915499192E-01
 cg2d: Sum(rhs),rhsMax =  -1.09218190047500E-14  5.36608773289725E-01
 cg2d: Sum(rhs),rhsMax =   4.69485561538363E-14  5.37081261885705E-01
 cg2d: Sum(rhs),rhsMax =  -5.18612930378026E-14  5.37537215313222E-01
 cg2d: Sum(rhs),rhsMax =   1.55916946020795E-13  5.37975493805853E-01
 cg2d: Sum(rhs),rhsMax =   1.62328483988006E-13  5.38395389199451E-01
 cg2d: Sum(rhs),rhsMax =  -1.09828812711044E-13  5.38796469396713E-01
 cg2d: Sum(rhs),rhsMax =  -2.12746487093796E-14  5.39178580939444E-01
 cg2d: Sum(rhs),rhsMax =   2.37823649662516E-13  5.39541934416147E-01
 cg2d: Sum(rhs),rhsMax =   3.04617442381527E-14  5.39887068387666E-01
 cg2d: Sum(rhs),rhsMax =  -8.35442826030430E-15  5.40214842249844E-01
 cg2d: Sum(rhs),rhsMax =  -2.26985097384613E-13  5.40526556681995E-01
 cg2d: Sum(rhs),rhsMax =   6.97497615220755E-14  5.40824075281525E-01
 cg2d: Sum(rhs),rhsMax =  -2.59861576701326E-13  5.41109795505485E-01
 cg2d: Sum(rhs),rhsMax =  -3.82943676768832E-13  5.41386287084870E-01
 cg2d: Sum(rhs),rhsMax =   2.36061170610924E-14  5.41656558820925E-01
 cg2d: Sum(rhs),rhsMax =  -9.88098491916389E-14  5.41923150872735E-01
 cg2d: Sum(rhs),rhsMax =  -7.72992780895265E-15  5.42188666416557E-01
 cg2d: Sum(rhs),rhsMax =   1.04694031222152E-13  5.42455570989310E-01
 cg2d: Sum(rhs),rhsMax =   1.23887011760360E-13  5.42726203706706E-01
 cg2d: Sum(rhs),rhsMax =  -5.59691182289157E-14  5.43002739594232E-01
 cg2d: Sum(rhs),rhsMax =  -1.47742929001993E-13  5.43286714340948E-01
 cg2d: Sum(rhs),rhsMax =   8.20316037319913E-14  5.43532033295076E-01
 cg2d: Sum(rhs),rhsMax =  -4.34374758384592E-14  5.43788379464683E-01
 cg2d: Sum(rhs),rhsMax =   6.73350264435157E-14  5.44057040604655E-01
 cg2d: Sum(rhs),rhsMax =   8.11295475244833E-14  5.44338265837846E-01
 cg2d: Sum(rhs),rhsMax =  -2.91433543964104E-15  5.44632538367009E-01
 cg2d: Sum(rhs),rhsMax =  -2.76584311009742E-14  5.44939863276353E-01
 cg2d: Sum(rhs),rhsMax =  -4.23272528138341E-15  5.45259822613690E-01
 cg2d: Sum(rhs),rhsMax =   5.50948175970234E-15  5.45591714306707E-01
 cg2d: Sum(rhs),rhsMax =  -1.34309230404028E-13  5.45934529446319E-01
 cg2d: Sum(rhs),rhsMax =  -1.57082680196652E-13  5.46286829384271E-01
 cg2d: Sum(rhs),rhsMax =  -6.53643805748061E-14  5.46647146113012E-01
 cg2d: Sum(rhs),rhsMax =   2.65495958551298E-13  5.47013391939618E-01
 cg2d: Sum(rhs),rhsMax =   1.33754118891716E-13  5.47383882849786E-01
 cg2d: Sum(rhs),rhsMax =   2.50355292052973E-14  5.47756432567468E-01
 cg2d: Sum(rhs),rhsMax =   1.91388571657569E-13  5.48126533435453E-01
 cg2d: Sum(rhs),rhsMax =  -7.62445662161326E-14  5.48491471021494E-01
 cg2d: Sum(rhs),rhsMax =   1.63910551798097E-13  5.48848775184582E-01
 cg2d: Sum(rhs),rhsMax =  -6.93195501000332E-14  5.49196763503506E-01
 cg2d: Sum(rhs),rhsMax =  -1.51531565073526E-13  5.49533582402671E-01
 cg2d: Sum(rhs),rhsMax =   3.99680288865056E-15  5.49857270180456E-01
 cg2d: Sum(rhs),rhsMax =   4.55468995852470E-14  5.50166560819149E-01
 cg2d: Sum(rhs),rhsMax =  -9.77828928938607E-14  5.50460439040972E-01
 cg2d: Sum(rhs),rhsMax =   3.77475828372553E-15  5.50738288281742E-01
 cg2d: Sum(rhs),rhsMax =   1.49047441055927E-14  5.50999897665605E-01
 cg2d: Sum(rhs),rhsMax =  -9.13574771388426E-14  5.51245355871313E-01
 cg2d: Sum(rhs),rhsMax =   4.15084633331730E-14  5.51475047303947E-01
 cg2d: Sum(rhs),rhsMax =  -1.13201115148343E-13  5.51689649501168E-01
 cg2d: Sum(rhs),rhsMax =   1.59761093243560E-13  5.51890049872056E-01
 cg2d: Sum(rhs),rhsMax =  -1.43968170718267E-13  5.52077110469109E-01
 cg2d: Sum(rhs),rhsMax =  -4.12295197982360E-13  5.52251804904773E-01
 cg2d: Sum(rhs),rhsMax =   3.96446764305836E-13  5.52415810882100E-01
 cg2d: Sum(rhs),rhsMax =  -1.02515218536325E-13  5.52571453073099E-01
 cg2d: Sum(rhs),rhsMax =   2.89213097914853E-14  5.52720211535248E-01
 cg2d: Sum(rhs),rhsMax =  -1.00336405850499E-13  5.52863186030011E-01
 cg2d: Sum(rhs),rhsMax =  -1.55694901415870E-13  5.53001896851110E-01
 cg2d: Sum(rhs),rhsMax =   1.91804905291804E-13  5.53138443291925E-01
 cg2d: Sum(rhs),rhsMax =  -2.60125254669674E-13  5.53274072514887E-01
 cg2d: Sum(rhs),rhsMax =  -5.34849942113169E-14  5.53410290123374E-01
 cg2d: Sum(rhs),rhsMax =  -5.66630076193064E-14  5.53548494321804E-01
 cg2d: Sum(rhs),rhsMax =   1.25011112572793E-13  5.53689896804618E-01
 cg2d: Sum(rhs),rhsMax =   7.62584440039404E-14  5.53835540586949E-01
 cg2d: Sum(rhs),rhsMax =   5.75095526755831E-14  5.53986246794616E-01
 cg2d: Sum(rhs),rhsMax =  -2.72296074577127E-13  5.54142898036247E-01
 cg2d: Sum(rhs),rhsMax =   2.02532435267244E-13  5.54305779939022E-01
 cg2d: Sum(rhs),rhsMax =   1.37945210809676E-14  5.54474755456515E-01
 cg2d: Sum(rhs),rhsMax =   7.69800889699468E-14  5.54650044637707E-01
 cg2d: Sum(rhs),rhsMax =  -1.80563897167474E-13  5.54831652950617E-01
 cg2d: Sum(rhs),rhsMax =  -3.10584891138888E-13  5.55019362032100E-01
 cg2d: Sum(rhs),rhsMax =   3.95933286156946E-14  5.55213135690123E-01
 cg2d: Sum(rhs),rhsMax =  -1.07330810905637E-13  5.55412600396551E-01
 cg2d: Sum(rhs),rhsMax =   1.75942593827472E-13  5.55622915945161E-01
 cg2d: Sum(rhs),rhsMax =   1.59539048638635E-13  5.55836820439451E-01
 cg2d: Sum(rhs),rhsMax =  -1.66394675815695E-14  5.56053072763202E-01
 cg2d: Sum(rhs),rhsMax =   1.37473366024210E-13  5.56270723620339E-01
 cg2d: Sum(rhs),rhsMax =   1.19293463995973E-13  5.56489151866157E-01
 cg2d: Sum(rhs),rhsMax =  -9.13574771388426E-14  5.56707419243213E-01
 cg2d: Sum(rhs),rhsMax =  -2.17839635219264E-13  5.56924958927172E-01
 cg2d: Sum(rhs),rhsMax =   1.17864051851768E-13  5.57140847247333E-01
 cg2d: Sum(rhs),rhsMax =   5.21527265817667E-14  5.57354376171540E-01
 cg2d: Sum(rhs),rhsMax =  -1.67088565206086E-14  5.57564948256601E-01
 cg2d: Sum(rhs),rhsMax =   2.85993451143440E-13  5.57772062551658E-01
 cg2d: Sum(rhs),rhsMax =  -6.81538159241768E-14  5.57975343657969E-01
 cg2d: Sum(rhs),rhsMax =   1.25927046568108E-13  5.58174566352744E-01
 cg2d: Sum(rhs),rhsMax =  -4.59493554316737E-14  5.58371939097270E-01
 cg2d: Sum(rhs),rhsMax =   4.02455846426619E-15  5.58565751509138E-01
 cg2d: Sum(rhs),rhsMax =   2.77833311912445E-13  5.58759459518981E-01
 cg2d: Sum(rhs),rhsMax =  -2.51215714897057E-13  5.58951502004407E-01
 cg2d: Sum(rhs),rhsMax =   1.03944630680530E-13  5.59135226669674E-01
 cg2d: Sum(rhs),rhsMax =  -2.52992071736458E-14  5.59220203319250E-01
 cg2d: Sum(rhs),rhsMax =   1.99271155132408E-13  5.59302205193225E-01
 cg2d: Sum(rhs),rhsMax =  -4.99600361081320E-15  5.59383997190990E-01
 cg2d: Sum(rhs),rhsMax =  -4.95020691104742E-14  5.59465095919495E-01
 cg2d: Sum(rhs),rhsMax =  -8.74994521282701E-14  5.59546154993026E-01
 cg2d: Sum(rhs),rhsMax =  -8.23785484271866E-14  5.59627434821641E-01
 cg2d: Sum(rhs),rhsMax =   3.45973250048814E-14  5.59708613805216E-01
 cg2d: Sum(rhs),rhsMax =  -3.52579077045334E-13  5.59790456074010E-01
 cg2d: Sum(rhs),rhsMax =  -1.75026659832156E-13  5.59873291235867E-01
 cg2d: Sum(rhs),rhsMax =   1.30215283000723E-13  5.59957726729400E-01
 cg2d: Sum(rhs),rhsMax =  -1.51836876405298E-13  5.60043989309519E-01
 cg2d: Sum(rhs),rhsMax =   2.47926679186605E-13  5.60131187681620E-01
 cg2d: Sum(rhs),rhsMax =   7.29971638691040E-15  5.60219815727584E-01
 cg2d: Sum(rhs),rhsMax =   1.92290627865077E-13  5.60310262614649E-01
 cg2d: Sum(rhs),rhsMax =   2.59653409884208E-13  5.60402952437648E-01
 cg2d: Sum(rhs),rhsMax =  -1.59705582092329E-13  5.60498940401083E-01
 cg2d: Sum(rhs),rhsMax =  -1.73902559019723E-13  5.60595776265256E-01
 cg2d: Sum(rhs),rhsMax =  -3.10584891138888E-14  5.60693269927182E-01
 cg2d: Sum(rhs),rhsMax =   1.82784343216724E-13  5.60791067348553E-01
 cg2d: Sum(rhs),rhsMax =  -9.52155021494150E-14  5.60888810533839E-01
 cg2d: Sum(rhs),rhsMax =   1.73083769539062E-13  5.60985935960572E-01
 cg2d: Sum(rhs),rhsMax =   6.07985883860351E-14  5.61081029679855E-01
 cg2d: Sum(rhs),rhsMax =  -1.53183021822656E-13  5.61173576862099E-01
 cg2d: Sum(rhs),rhsMax =  -5.97993876638725E-14  5.61262951798748E-01
 cg2d: Sum(rhs),rhsMax =   3.29652971586825E-13  5.61348283672256E-01
 cg2d: Sum(rhs),rhsMax =  -7.88535903240017E-14  5.61428154058320E-01
 cg2d: Sum(rhs),rhsMax =   1.51587076224757E-13  5.61502563779493E-01
 cg2d: Sum(rhs),rhsMax =  -2.43499664875912E-13  5.61571771045543E-01
 cg2d: Sum(rhs),rhsMax =  -2.90392709878518E-13  5.61635383185480E-01
 cg2d: Sum(rhs),rhsMax =   1.73319691931795E-13  5.61693423877552E-01
 cg2d: Sum(rhs),rhsMax =  -3.99652533289441E-13  5.61745555755413E-01
 cg2d: Sum(rhs),rhsMax =   1.98591143529825E-14  5.61791607399814E-01
 cg2d: Sum(rhs),rhsMax =   2.41168196524200E-13  5.61831680369310E-01
 cg2d: Sum(rhs),rhsMax =  -2.70075628527877E-13  5.61865796059114E-01
 cg2d: Sum(rhs),rhsMax =  -6.08540995372664E-14  5.61894278084836E-01
 cg2d: Sum(rhs),rhsMax =  -5.38596944821279E-14  5.61917566907975E-01
 cg2d: Sum(rhs),rhsMax =  -1.33157374015980E-13  5.61936095210162E-01
 cg2d: Sum(rhs),rhsMax =  -3.93157728595384E-14  5.61950921929306E-01
 cg2d: Sum(rhs),rhsMax =  -9.19403442267708E-14  5.61962734478941E-01
 cg2d: Sum(rhs),rhsMax =  -2.01672012423160E-13  5.61972481045958E-01
 cg2d: Sum(rhs),rhsMax =   1.42802436542411E-14  5.61982097818258E-01
 cg2d: Sum(rhs),rhsMax =  -2.01977323754932E-13  5.61993688234019E-01
 cg2d: Sum(rhs),rhsMax =  -4.92106355665101E-14  5.62008167069545E-01
 cg2d: Sum(rhs),rhsMax =   1.38306033292679E-13  5.61982100474019E-01
 cg2d: Sum(rhs),rhsMax =  -5.27772270331184E-14  5.61958507757614E-01
 cg2d: Sum(rhs),rhsMax =   2.53963516883005E-14  5.61939650250945E-01
 cg2d: Sum(rhs),rhsMax =  -1.50435219836709E-14  5.61926365185251E-01
 cg2d: Sum(rhs),rhsMax =  -1.20542464898676E-13  5.61918367031134E-01
 cg2d: Sum(rhs),rhsMax =   1.22998833340660E-13  5.61915904193347E-01
 cg2d: Sum(rhs),rhsMax =  -1.16254228466062E-13  5.61919303747955E-01
 cg2d: Sum(rhs),rhsMax =   1.00863761787195E-13  5.61929809859646E-01
 cg2d: Sum(rhs),rhsMax =  -6.71407374142063E-14  5.61948303541403E-01
 cg2d: Sum(rhs),rhsMax =  -6.03683769639929E-14  5.61975196345810E-01
 cg2d: Sum(rhs),rhsMax =  -5.36098943015872E-14  5.62011615323340E-01
 cg2d: Sum(rhs),rhsMax =   3.41990324947972E-13  5.62057485126518E-01
 cg2d: Sum(rhs),rhsMax =   5.60940183191860E-14  5.62112750582189E-01
 cg2d: Sum(rhs),rhsMax =   9.56457135714572E-14  5.62177161533969E-01
 cg2d: Sum(rhs),rhsMax =  -1.41164857581089E-13  5.62248486154786E-01
 cg2d: Sum(rhs),rhsMax =   1.18308141061618E-13  5.62324587412863E-01
 cg2d: Sum(rhs),rhsMax =  -1.06747943817709E-13  5.62404358779350E-01
 cg2d: Sum(rhs),rhsMax =   9.80882042256326E-14  5.62486342809540E-01
 cg2d: Sum(rhs),rhsMax =  -1.08593689596148E-13  5.62569148561429E-01
 cg2d: Sum(rhs),rhsMax =   1.36612943180126E-13  5.62651182678484E-01
 cg2d: Sum(rhs),rhsMax =   2.61429766723609E-13  5.62731409286884E-01
 cg2d: Sum(rhs),rhsMax =   3.62349039662035E-14  5.62808830955868E-01
 cg2d: Sum(rhs),rhsMax =   6.59888810261577E-14  5.62882573981422E-01
 cg2d: Sum(rhs),rhsMax =  -1.06109565578549E-13  5.62952723800023E-01
 cg2d: Sum(rhs),rhsMax =   5.71209746169643E-14  5.63018597027614E-01
 cg2d: Sum(rhs),rhsMax =   6.56280585431546E-14  5.63079642925248E-01
 cg2d: Sum(rhs),rhsMax =  -5.68295410730002E-14  5.63135204130304E-01
 cg2d: Sum(rhs),rhsMax =   7.59947660355920E-14  5.63184876213790E-01
 cg2d: Sum(rhs),rhsMax =   1.30270794151954E-13  5.63228421717985E-01
 cg2d: Sum(rhs),rhsMax =   1.20570220474292E-13  5.63265726874672E-01
 cg2d: Sum(rhs),rhsMax =   1.38486444534180E-13  5.63296809011641E-01
 cg2d: Sum(rhs),rhsMax =   2.21517248988334E-13  5.63321790573350E-01
 cg2d: Sum(rhs),rhsMax =   1.73888681231915E-14  5.63340958679083E-01
 cg2d: Sum(rhs),rhsMax =  -5.23747711866918E-14  5.63354822030047E-01
 cg2d: Sum(rhs),rhsMax =  -5.74679193121597E-14  5.63364129442463E-01
 cg2d: Sum(rhs),rhsMax =  -3.13402082063874E-13  5.63369155179487E-01
 cg2d: Sum(rhs),rhsMax =   2.10192974137158E-13  5.63371414367726E-01
 cg2d: Sum(rhs),rhsMax =  -4.19247969674075E-14  5.63312146596164E-01
 cg2d: Sum(rhs),rhsMax =  -2.23265850252119E-13  5.63222425712791E-01
 cg2d: Sum(rhs),rhsMax =  -2.64399613314481E-13  5.63131905365730E-01
 cg2d: Sum(rhs),rhsMax =  -1.49047441055927E-14  5.63040909426505E-01
 cg2d: Sum(rhs),rhsMax =   2.23779328401008E-13  5.62949911949498E-01
 cg2d: Sum(rhs),rhsMax =   2.06917816214514E-14  5.62859646283827E-01
 cg2d: Sum(rhs),rhsMax =  -2.04988803709227E-13  5.62770454264048E-01
 cg2d: Sum(rhs),rhsMax =  -1.91249793779491E-13  5.62681242052067E-01
 cg2d: Sum(rhs),rhsMax =   1.19210197269126E-13  5.62592673157573E-01
 cg2d: Sum(rhs),rhsMax =   1.66339164664464E-13  5.62504568366266E-01
 cg2d: Sum(rhs),rhsMax =   1.64729341278758E-14  5.62417124915265E-01
 cg2d: Sum(rhs),rhsMax =   1.14658282868163E-13  5.62331445488247E-01
 cg2d: Sum(rhs),rhsMax =  -6.36296570988293E-14  5.62248797244695E-01
 cg2d: Sum(rhs),rhsMax =   6.45872244575685E-14  5.62169889792315E-01
 cg2d: Sum(rhs),rhsMax =  -1.59441904123980E-13  5.62094781014062E-01
 cg2d: Sum(rhs),rhsMax =   1.91513471747840E-15  5.62022104475402E-01
 cg2d: Sum(rhs),rhsMax =  -7.91727794435815E-14  5.61949292015029E-01
 cg2d: Sum(rhs),rhsMax =   1.52225454463917E-13  5.61875146923920E-01
 cg2d: Sum(rhs),rhsMax =   6.35602681597902E-15  5.61798938082386E-01
 cg2d: Sum(rhs),rhsMax =  -9.50628464835290E-15  5.61721092111126E-01
 cg2d: Sum(rhs),rhsMax =   3.72479824761740E-13  5.61639225144266E-01
 cg2d: Sum(rhs),rhsMax =  -9.67004254448511E-14  5.61552027037936E-01
 cg2d: Sum(rhs),rhsMax =   4.75314232417645E-14  5.61458748235172E-01
 cg2d: Sum(rhs),rhsMax =   1.29174448915137E-13  5.61359109858122E-01
 cg2d: Sum(rhs),rhsMax =   3.36591865490732E-13  5.61253434907605E-01
 cg2d: Sum(rhs),rhsMax =   6.07153216591882E-14  5.61142874536667E-01
 cg2d: Sum(rhs),rhsMax =  -2.64135935346133E-13  5.61026832359435E-01
 cg2d: Sum(rhs),rhsMax =  -3.17218473711023E-13  5.60905663810278E-01
 cg2d: Sum(rhs),rhsMax =   6.51284581820732E-14  5.60779492265068E-01
 cg2d: Sum(rhs),rhsMax =  -3.85524945301086E-14  5.60648640652475E-01
 cg2d: Sum(rhs),rhsMax =  -1.64090963039598E-13  5.60513191370231E-01
 cg2d: Sum(rhs),rhsMax =  -1.82312498431259E-13  5.60373297892255E-01
 cg2d: Sum(rhs),rhsMax =   7.32469640496447E-14  5.60229388662657E-01
 cg2d: Sum(rhs),rhsMax =  -2.61832222570035E-13  5.60082197803435E-01
 cg2d: Sum(rhs),rhsMax =   7.74519337554125E-14  5.59932596859206E-01
 cg2d: Sum(rhs),rhsMax =  -2.94209101525666E-14  5.59781327241533E-01
 cg2d: Sum(rhs),rhsMax =   1.28508315100362E-13  5.59629158513366E-01
 cg2d: Sum(rhs),rhsMax =   7.80070452677251E-14  5.59477234645995E-01
 cg2d: Sum(rhs),rhsMax =   1.09995346164737E-13  5.59326972489945E-01
 cg2d: Sum(rhs),rhsMax =   5.53723733531797E-14  5.59179104394406E-01
 cg2d: Sum(rhs),rhsMax =  -2.42805775485522E-13  5.59034076402860E-01
 cg2d: Sum(rhs),rhsMax =  -1.05110364856387E-13  5.58891884522779E-01
 cg2d: Sum(rhs),rhsMax =   1.19668164266784E-13  5.58752533904612E-01
 cg2d: Sum(rhs),rhsMax =   9.00390872971002E-14  5.58615853765211E-01
 cg2d: Sum(rhs),rhsMax =   2.04794514679918E-13  5.58480549635711E-01
 cg2d: Sum(rhs),rhsMax =  -3.88439280740727E-14  5.58347121575746E-01
 cg2d: Sum(rhs),rhsMax =   4.85583795395428E-14  5.58216039591468E-01
 cg2d: Sum(rhs),rhsMax =  -1.42205691666675E-13  5.58087027120707E-01
 cg2d: Sum(rhs),rhsMax =  -2.93015611774194E-13  5.57959448685033E-01
 cg2d: Sum(rhs),rhsMax =  -2.91669466356836E-13  5.57834121272379E-01
 cg2d: Sum(rhs),rhsMax =  -5.77454750683160E-14  5.57711805461109E-01
 cg2d: Sum(rhs),rhsMax =  -1.28244637132013E-13  5.57593136409882E-01
 cg2d: Sum(rhs),rhsMax =   1.33157374015980E-13  5.57477896098202E-01
 cg2d: Sum(rhs),rhsMax =  -2.34118280317830E-14  5.57366476244891E-01
 cg2d: Sum(rhs),rhsMax =  -2.28525531831281E-13  5.57255145217032E-01
 cg2d: Sum(rhs),rhsMax =   9.10799213826863E-14  5.57142376505824E-01
 cg2d: Sum(rhs),rhsMax =  -1.19487753025282E-14  5.57027344385123E-01
 cg2d: Sum(rhs),rhsMax =   3.18078896555107E-14  5.56908991737037E-01
 cg2d: Sum(rhs),rhsMax =   1.95898852695109E-13  5.56785911817694E-01
 cg2d: Sum(rhs),rhsMax =   7.91727794435815E-14  5.56656978953865E-01
 cg2d: Sum(rhs),rhsMax =  -7.18869408444789E-15  5.56521574962086E-01
 cg2d: Sum(rhs),rhsMax =  -2.13024042849952E-14  5.56379240171107E-01
 cg2d: Sum(rhs),rhsMax =  -4.38121761092702E-14  5.56229602997420E-01
 cg2d: Sum(rhs),rhsMax =   1.26884613926848E-13  5.56074206829973E-01
 cg2d: Sum(rhs),rhsMax =  -5.97716320882569E-14  5.55913363543048E-01
 cg2d: Sum(rhs),rhsMax =   7.97278909558941E-14  5.55746613714372E-01
 cg2d: Sum(rhs),rhsMax =   1.09495745803656E-14  5.55573944611105E-01
 cg2d: Sum(rhs),rhsMax =  -1.69586567011493E-14  5.55395483800861E-01
 cg2d: Sum(rhs),rhsMax =   1.38458688958565E-13  5.55211405616424E-01
 cg2d: Sum(rhs),rhsMax =  -2.02338146237935E-13  5.55022059440540E-01
 cg2d: Sum(rhs),rhsMax =  -3.91769949814602E-14  5.54827922757819E-01
 cg2d: Sum(rhs),rhsMax =   1.52794443764037E-13  5.54629325373185E-01
 cg2d: Sum(rhs),rhsMax =  -1.09967590589122E-13  5.54426539642636E-01
 cg2d: Sum(rhs),rhsMax =  -1.94289029309402E-15  5.54220981710019E-01
 cg2d: Sum(rhs),rhsMax =  -3.30430127704062E-14  5.54013304810788E-01
 cg2d: Sum(rhs),rhsMax =   4.24243973284888E-14  5.53804706494268E-01
 cg2d: Sum(rhs),rhsMax =   2.48565057425765E-13  5.53596265531246E-01
 cg2d: Sum(rhs),rhsMax =  -3.28903571045203E-15  5.53388596989901E-01
 cg2d: Sum(rhs),rhsMax =   1.05013220341732E-13  5.53181609758738E-01
 cg2d: Sum(rhs),rhsMax =   1.31838984174237E-13  5.52975708840374E-01
 cg2d: Sum(rhs),rhsMax =   1.20459198171829E-13  5.52771028272183E-01
 cg2d: Sum(rhs),rhsMax =   3.32775473843583E-13  5.52565527993058E-01
 cg2d: Sum(rhs),rhsMax =  -2.45289899503121E-13  5.52359441584218E-01
 cg2d: Sum(rhs),rhsMax =   8.92202978164391E-14  5.52153171355183E-01
 cg2d: Sum(rhs),rhsMax =  -8.90815199383610E-14  5.51946169412394E-01
 cg2d: Sum(rhs),rhsMax =   1.84102733058467E-13  5.51737959823043E-01
 cg2d: Sum(rhs),rhsMax =  -3.09335890236184E-14  5.51529586107230E-01
 cg2d: Sum(rhs),rhsMax =   1.01654795692241E-13  5.51322037070285E-01
 cg2d: Sum(rhs),rhsMax =  -1.76275660734859E-13  5.51116338972474E-01
 cg2d: Sum(rhs),rhsMax =  -6.89587276170300E-14  5.50913404500348E-01
 cg2d: Sum(rhs),rhsMax =   6.35186347963668E-14  5.50714079287636E-01
 cg2d: Sum(rhs),rhsMax =  -1.22582499706425E-13  5.50519105488686E-01
 cg2d: Sum(rhs),rhsMax =   1.54820600783978E-13  5.50329107112667E-01
 cg2d: Sum(rhs),rhsMax =   2.00187089127724E-13  5.50142001255094E-01
 cg2d: Sum(rhs),rhsMax =   9.46465128492946E-15  5.49954511494174E-01
 cg2d: Sum(rhs),rhsMax =  -7.22893966909055E-14  5.49765613809075E-01
 cg2d: Sum(rhs),rhsMax =   2.55906407176099E-13  5.49574320085201E-01
 cg2d: Sum(rhs),rhsMax =   1.17142406885762E-13  5.49380311425853E-01
 cg2d: Sum(rhs),rhsMax =   1.02418074021671E-14  5.49183355785367E-01
 cg2d: Sum(rhs),rhsMax =  -1.95690685877992E-13  5.48983304016987E-01
 cg2d: Sum(rhs),rhsMax =  -1.55930823808603E-13  5.48780098477251E-01
 cg2d: Sum(rhs),rhsMax =   1.76511583127592E-13  5.48574293239651E-01
 cg2d: Sum(rhs),rhsMax =  -1.78843051479305E-13  5.48366260258328E-01
 cg2d: Sum(rhs),rhsMax =  -1.93720040009282E-13  5.48155918180152E-01
 cg2d: Sum(rhs),rhsMax =   1.40706890583431E-13  5.47943355211398E-01
 cg2d: Sum(rhs),rhsMax =   1.41095468642050E-13  5.47728823481049E-01
 cg2d: Sum(rhs),rhsMax =   1.64507296673833E-13  5.47506624931861E-01
 cg2d: Sum(rhs),rhsMax =  -4.55052662218236E-14  5.47283133250675E-01
 cg2d: Sum(rhs),rhsMax =  -1.98938088225020E-13  5.47058797326091E-01
 cg2d: Sum(rhs),rhsMax =   7.93115573216596E-14  5.46833965026752E-01
 cg2d: Sum(rhs),rhsMax =   8.11017919488677E-14  5.46608982491155E-01
 cg2d: Sum(rhs),rhsMax =   5.36515276650107E-14  5.46384205542095E-01
 cg2d: Sum(rhs),rhsMax =  -5.55805401702969E-14  5.46160963518520E-01
 cg2d: Sum(rhs),rhsMax =  -1.19099174966664E-13  5.45939579945310E-01
 cg2d: Sum(rhs),rhsMax =  -2.06640260458357E-14  5.45720618287333E-01
 cg2d: Sum(rhs),rhsMax =  -8.56120729864074E-14  5.45503978329129E-01
 cg2d: Sum(rhs),rhsMax =   2.75182654441153E-13  5.45289717732815E-01
 cg2d: Sum(rhs),rhsMax =  -5.26662047306559E-14  5.45077858217512E-01
 cg2d: Sum(rhs),rhsMax =  -1.76261782947051E-13  5.44868245256686E-01
 cg2d: Sum(rhs),rhsMax =  -1.51684220739412E-14  5.44657577503006E-01
 cg2d: Sum(rhs),rhsMax =  -7.07767178198537E-15  5.44444367578372E-01
 cg2d: Sum(rhs),rhsMax =  -1.90403248723214E-14  5.44228616939494E-01
 cg2d: Sum(rhs),rhsMax =   1.28730359705287E-13  5.44008747140884E-01
 cg2d: Sum(rhs),rhsMax =   6.21724893790088E-14  5.43784237832759E-01
 cg2d: Sum(rhs),rhsMax =  -2.76820233402475E-13  5.43555616142745E-01
(PID.TID 0000.0001) // =======================================================
(PID.TID 0000.0001) // Begin MONITOR dynamic field statistics
(PID.TID 0000.0001) // =======================================================
(PID.TID 0000.0001) %MON time_tsnumber                =                  8640
(PID.TID 0000.0001) %MON time_secondsf                =   1.0368000000000E+07
(PID.TID 0000.0001) %MON dynstat_eta_max              =   1.4007493796817E-01
(PID.TID 0000.0001) %MON dynstat_eta_min              =  -1.7624725645361E-01
(PID.TID 0000.0001) %MON dynstat_eta_mean             =   1.9936885019663E-17
(PID.TID 0000.0001) %MON dynstat_eta_sd               =   8.6499927747410E-02
(PID.TID 0000.0001) %MON dynstat_eta_del2             =   3.4545895044052E-04
(PID.TID 0000.0001) %MON dynstat_uvel_max             =   3.5127740341150E-01
(PID.TID 0000.0001) %MON dynstat_uvel_min             =  -4.2029607257151E-01
(PID.TID 0000.0001) %MON dynstat_uvel_mean            =   3.3713952411036E-05
(PID.TID 0000.0001) %MON dynstat_uvel_sd              =   1.0878238820716E-02
(PID.TID 0000.0001) %MON dynstat_uvel_del2            =   3.3852478422552E-04
(PID.TID 0000.0001) %MON dynstat_vvel_max             =   3.8309599819919E-01
(PID.TID 0000.0001) %MON dynstat_vvel_min             =  -2.4465636893910E-01
(PID.TID 0000.0001) %MON dynstat_vvel_mean            =  -1.9074527340893E-06
(PID.TID 0000.0001) %MON dynstat_vvel_sd              =   1.1887477800247E-02
(PID.TID 0000.0001) %MON dynstat_vvel_del2            =   2.2336300406573E-04
(PID.TID 0000.0001) %MON dynstat_wvel_max             =   1.7907559578517E-04
(PID.TID 0000.0001) %MON dynstat_wvel_min             =  -2.3148188163334E-04
(PID.TID 0000.0001) %MON dynstat_wvel_mean            =   1.6260215125069E-22
(PID.TID 0000.0001) %MON dynstat_wvel_sd              =   9.6421461091554E-06
(PID.TID 0000.0001) %MON dynstat_wvel_del2            =   2.8278033626497E-07
(PID.TID 0000.0001) %MON dynstat_theta_max            =   2.6844869803723E+01
(PID.TID 0000.0001) %MON dynstat_theta_min            =   9.9029939927967E-01
(PID.TID 0000.0001) %MON dynstat_theta_mean           =   4.0310269224598E+00
(PID.TID 0000.0001) %MON dynstat_theta_sd             =   4.5023897142757E+00
(PID.TID 0000.0001) %MON dynstat_theta_del2           =   2.4529111707856E-03
(PID.TID 0000.0001) %MON dynstat_salt_max             =   3.4500000000008E+01
(PID.TID 0000.0001) %MON dynstat_salt_min             =   3.4499999999985E+01
(PID.TID 0000.0001) %MON dynstat_salt_mean            =   3.4499999999999E+01
(PID.TID 0000.0001) %MON dynstat_salt_sd              =   1.6844753241640E-12
(PID.TID 0000.0001) %MON dynstat_salt_del2            =   1.2257260678990E-14
(PID.TID 0000.0001) %MON trAdv_CFL_u_max              =   1.2812981663591E-02
(PID.TID 0000.0001) %MON trAdv_CFL_v_max              =   4.2341008051263E-03
(PID.TID 0000.0001) %MON trAdv_CFL_w_max              =   1.8553023489337E-02
(PID.TID 0000.0001) %MON advcfl_uvel_max              =   1.2812819036818E-02
(PID.TID 0000.0001) %MON advcfl_vvel_max              =   4.1349671293874E-03
(PID.TID 0000.0001) %MON advcfl_wvel_max              =   1.7400240597090E-02
(PID.TID 0000.0001) %MON advcfl_W_hf_max              =   1.8553023489337E-02
(PID.TID 0000.0001) %MON pe_b_mean                    =   1.1822713815665E-05
(PID.TID 0000.0001) %MON ke_max                       =   1.0108852981190E-01
(PID.TID 0000.0001) %MON ke_mean                      =   1.2702489326230E-04
(PID.TID 0000.0001) %MON ke_vol                       =   7.5744557036543E+16
(PID.TID 0000.0001) %MON vort_r_min                   =  -8.0828652080330E-06
(PID.TID 0000.0001) %MON vort_r_max                   =   8.0356555999323E-06
(PID.TID 0000.0001) %MON vort_a_mean                  =   9.3555569952477E-05
(PID.TID 0000.0001) %MON vort_a_sd                    =   2.5195040923396E-05
(PID.TID 0000.0001) %MON vort_p_mean                  =   9.7478626213493E-05
(PID.TID 0000.0001) %MON vort_p_sd                    =   3.9504165351607E-05
(PID.TID 0000.0001) %MON surfExpan_theta_mean         =   1.2179087169080E-08
(PID.TID 0000.0001) %MON surfExpan_salt_mean          =   7.7091252267544E-21
(PID.TID 0000.0001) // =======================================================
(PID.TID 0000.0001) // End MONITOR dynamic field statistics
(PID.TID 0000.0001) // =======================================================
(PID.TID 0000.0001) %CHECKPOINT      8640 ckptB
 cg2d: Sum(rhs),rhsMax =   4.25076640553357E-14  5.43323433969936E-01
 cg2d: Sum(rhs),rhsMax =   4.56856774633252E-14  5.43082536392158E-01
 cg2d: Sum(rhs),rhsMax =   9.43550793053305E-14  5.42839252663409E-01
 cg2d: Sum(rhs),rhsMax =  -1.10148001830623E-13  5.42594393508864E-01
 cg2d: Sum(rhs),rhsMax =   6.63358257213531E-15  5.42348513562714E-01
 cg2d: Sum(rhs),rhsMax =   1.43191014601030E-13  5.42102172554020E-01
 cg2d: Sum(rhs),rhsMax =  -3.77753384128710E-14  5.41855859911273E-01
 cg2d: Sum(rhs),rhsMax =   6.91668944341473E-14  5.41607845760627E-01
 cg2d: Sum(rhs),rhsMax =  -6.05210326298788E-14  5.41355400406911E-01
 cg2d: Sum(rhs),rhsMax =  -8.69582184037654E-14  5.41096407324518E-01
 cg2d: Sum(rhs),rhsMax =  -9.04831765069503E-14  5.40830664925868E-01
 cg2d: Sum(rhs),rhsMax =   7.53702655842403E-14  5.40557856561844E-01
 cg2d: Sum(rhs),rhsMax =  -1.21430643318376E-13  5.40278169878907E-01
 cg2d: Sum(rhs),rhsMax =   2.70339306496226E-14  5.39991870150680E-01
 cg2d: Sum(rhs),rhsMax =   9.52710133006462E-14  5.39699312882922E-01
 cg2d: Sum(rhs),rhsMax =   1.52600154734728E-13  5.39400691846877E-01
 cg2d: Sum(rhs),rhsMax =  -2.87547763377916E-14  5.39097531520419E-01
 cg2d: Sum(rhs),rhsMax =   5.62189184094564E-14  5.38790852480311E-01
 cg2d: Sum(rhs),rhsMax =  -3.56520368782753E-14  5.38481081828274E-01
 cg2d: Sum(rhs),rhsMax =  -9.09550212924159E-14  5.38169357549782E-01
 cg2d: Sum(rhs),rhsMax =  -1.47007406248179E-13  5.37856343033226E-01
 cg2d: Sum(rhs),rhsMax =  -2.31620278512423E-14  5.37543005978684E-01
 cg2d: Sum(rhs),rhsMax =  -8.04911692853238E-15  5.37229992826032E-01
 cg2d: Sum(rhs),rhsMax =   4.71567229709535E-14  5.36917933745152E-01
 cg2d: Sum(rhs),rhsMax =  -1.35030875370035E-13  5.36607884138425E-01
 cg2d: Sum(rhs),rhsMax =   3.18772785945498E-14  5.36300909981791E-01
 cg2d: Sum(rhs),rhsMax =   6.84174938925253E-14  5.35998615854417E-01
 cg2d: Sum(rhs),rhsMax =  -2.43652320541798E-13  5.35702700290632E-01
 cg2d: Sum(rhs),rhsMax =  -1.93220439648201E-13  5.35414044878664E-01
 cg2d: Sum(rhs),rhsMax =  -3.98209243357428E-13  5.35133389423438E-01
 cg2d: Sum(rhs),rhsMax =  -1.43912659567036E-14  5.34861318750724E-01
 cg2d: Sum(rhs),rhsMax =   3.36466965400462E-13  5.34598165767307E-01
 cg2d: Sum(rhs),rhsMax =  -7.30665528081431E-14  5.34342688292155E-01
 cg2d: Sum(rhs),rhsMax =   2.60055865730635E-13  5.34092043706062E-01
 cg2d: Sum(rhs),rhsMax =  -1.09634523681734E-13  5.33846339221023E-01
 cg2d: Sum(rhs),rhsMax =   1.53169144034848E-13  5.33603346790037E-01
 cg2d: Sum(rhs),rhsMax =  -1.43954292930459E-13  5.33363078442667E-01
 cg2d: Sum(rhs),rhsMax =   5.69544411632705E-14  5.33125739575246E-01
 cg2d: Sum(rhs),rhsMax =  -1.40248923585773E-13  5.32891722912073E-01
 cg2d: Sum(rhs),rhsMax =   1.71113123670352E-14  5.32661364164273E-01
 cg2d: Sum(rhs),rhsMax =  -3.02216585090775E-13  5.32434946388777E-01
 cg2d: Sum(rhs),rhsMax =  -3.08503222967715E-14  5.32087134761721E-01
 cg2d: Sum(rhs),rhsMax =  -1.34336985979644E-14  5.31663823148870E-01
 cg2d: Sum(rhs),rhsMax =  -1.04818931312423E-13  5.31244952091147E-01
 cg2d: Sum(rhs),rhsMax =   2.26915708445574E-13  5.30850200278471E-01
 cg2d: Sum(rhs),rhsMax =   1.76497705339784E-13  5.30460195271716E-01
 cg2d: Sum(rhs),rhsMax =   3.25156568337093E-14  5.30071666474829E-01
 cg2d: Sum(rhs),rhsMax =  -1.29896093881143E-14  5.29682022588976E-01
 cg2d: Sum(rhs),rhsMax =  -7.61196661258623E-14  5.29289000791223E-01
 cg2d: Sum(rhs),rhsMax =   9.11354325339175E-14  5.28891763030014E-01
 cg2d: Sum(rhs),rhsMax =  -8.12544476147536E-14  5.28489918004410E-01
 cg2d: Sum(rhs),rhsMax =   1.17281184763840E-13  5.28083113079980E-01
 cg2d: Sum(rhs),rhsMax =  -1.13756226660655E-13  5.27670990943680E-01
 cg2d: Sum(rhs),rhsMax =   1.54265489271666E-13  5.27253126386768E-01
 cg2d: Sum(rhs),rhsMax =  -2.31994978783234E-13  5.26829581803610E-01
 cg2d: Sum(rhs),rhsMax =  -2.06126782309468E-13  5.26399845727013E-01
 cg2d: Sum(rhs),rhsMax =  -3.46250805804971E-14  5.25963820257999E-01
 cg2d: Sum(rhs),rhsMax =   6.03267436005694E-14  5.25520905561675E-01
 cg2d: Sum(rhs),rhsMax =   2.07847627997637E-13  5.25071350021965E-01
 cg2d: Sum(rhs),rhsMax =   1.16837095553990E-13  5.24615527521517E-01
 cg2d: Sum(rhs),rhsMax =  -6.65578703262781E-14  5.24153914003555E-01
 cg2d: Sum(rhs),rhsMax =   6.98607838245380E-14  5.23687082978382E-01
 cg2d: Sum(rhs),rhsMax =   6.97775170976911E-14  5.23215648461074E-01
 cg2d: Sum(rhs),rhsMax =  -8.61533067109121E-14  5.22740342661778E-01
 cg2d: Sum(rhs),rhsMax =  -2.16424100862866E-13  5.22262480298550E-01
 cg2d: Sum(rhs),rhsMax =   1.30812027876459E-13  5.21783519370830E-01
 cg2d: Sum(rhs),rhsMax =  -2.14148143662385E-13  5.21304309095529E-01
 cg2d: Sum(rhs),rhsMax =  -1.47382106518990E-13  5.20825625955115E-01
 cg2d: Sum(rhs),rhsMax =  -5.78564973707785E-14  5.20348190883284E-01
 cg2d: Sum(rhs),rhsMax =   5.15837372816463E-14  5.19872598365064E-01
 cg2d: Sum(rhs),rhsMax =   5.39429612089748E-14  5.19398373078955E-01
 cg2d: Sum(rhs),rhsMax =  -1.42399980695984E-13  5.18922563621732E-01
 cg2d: Sum(rhs),rhsMax =  -2.38836728172487E-13  5.18443385387099E-01
 cg2d: Sum(rhs),rhsMax =   6.82787160144471E-15  5.17962585081719E-01
 cg2d: Sum(rhs),rhsMax =  -2.46955234040058E-13  5.17476842045789E-01
 cg2d: Sum(rhs),rhsMax =  -4.27158308724529E-14  5.16990783505628E-01
 cg2d: Sum(rhs),rhsMax =   2.31384356119690E-13  5.16505588019573E-01
 cg2d: Sum(rhs),rhsMax =   2.18561280185270E-13  5.16022357301894E-01
 cg2d: Sum(rhs),rhsMax =   7.21089854494039E-14  5.15542112547981E-01
 cg2d: Sum(rhs),rhsMax =   8.10462807976364E-15  5.15065977341147E-01
 cg2d: Sum(rhs),rhsMax =  -6.46982467600310E-14  5.14595077345871E-01
 cg2d: Sum(rhs),rhsMax =  -4.11490286289506E-13  5.14130075548242E-01
 cg2d: Sum(rhs),rhsMax =  -3.29181126801359E-14  5.13671276749870E-01
 cg2d: Sum(rhs),rhsMax =  -6.36019015232137E-14  5.13218893139138E-01
 cg2d: Sum(rhs),rhsMax =  -2.64802069160908E-13  5.12771541917394E-01
 cg2d: Sum(rhs),rhsMax =  -2.08111305965986E-13  5.12325826065266E-01
 cg2d: Sum(rhs),rhsMax =   1.72015179877860E-13  5.11880125819231E-01
 cg2d: Sum(rhs),rhsMax =  -2.04031236350488E-13  5.11433857064801E-01
 cg2d: Sum(rhs),rhsMax =  -2.08291717207487E-13  5.10986740287858E-01
 cg2d: Sum(rhs),rhsMax =   9.73388036840106E-14  5.10537850215136E-01
 cg2d: Sum(rhs),rhsMax =  -2.03170813506404E-13  5.10087182028522E-01
 cg2d: Sum(rhs),rhsMax =  -1.03111963412061E-14  5.09635186699316E-01
 cg2d: Sum(rhs),rhsMax =  -1.38777878078145E-16  5.09182068824912E-01
 cg2d: Sum(rhs),rhsMax =  -6.06875660835726E-14  5.08727940170331E-01
 cg2d: Sum(rhs),rhsMax =   1.02695629777827E-15  5.08272385929566E-01
 cg2d: Sum(rhs),rhsMax =  -3.70120600834412E-14  5.07815559159582E-01
 cg2d: Sum(rhs),rhsMax =   3.74839048689068E-14  5.07357675757479E-01
 cg2d: Sum(rhs),rhsMax =  -4.37719305246276E-13  5.06900574666907E-01
 cg2d: Sum(rhs),rhsMax =   2.33299490837169E-13  5.06442611780622E-01
 cg2d: Sum(rhs),rhsMax =   1.84158244209698E-14  5.05983970236966E-01
 cg2d: Sum(rhs),rhsMax =  -8.17401701880272E-15  5.05524873475496E-01
 cg2d: Sum(rhs),rhsMax =   4.71844785465692E-16  5.05065560756535E-01
 cg2d: Sum(rhs),rhsMax =   2.10401140954275E-13  5.04609501078578E-01
 cg2d: Sum(rhs),rhsMax =  -2.34173791469061E-13  5.04154936932710E-01
 cg2d: Sum(rhs),rhsMax =  -1.63646873829748E-13  5.03702309742150E-01
 cg2d: Sum(rhs),rhsMax =  -9.52016243616072E-14  5.03251865585808E-01
 cg2d: Sum(rhs),rhsMax =  -5.21249710061511E-14  5.02803772254461E-01
 cg2d: Sum(rhs),rhsMax =  -9.38138455808257E-15  5.02349355472029E-01
 cg2d: Sum(rhs),rhsMax =  -1.08579811808340E-13  5.01867595506393E-01
 cg2d: Sum(rhs),rhsMax =   1.51267887105178E-13  5.01380844266258E-01
 cg2d: Sum(rhs),rhsMax =  -3.25767191000637E-13  5.01337223561959E-01
 cg2d: Sum(rhs),rhsMax =   1.85559900778287E-13  5.02213119670527E-01
 cg2d: Sum(rhs),rhsMax =   1.60219060241218E-13  5.03074911204760E-01
 cg2d: Sum(rhs),rhsMax =   1.04083408558608E-15  5.03922863134528E-01
 cg2d: Sum(rhs),rhsMax =   1.52461376856650E-13  5.04755598548259E-01
 cg2d: Sum(rhs),rhsMax =  -1.41345268822590E-13  5.05572659031897E-01
 cg2d: Sum(rhs),rhsMax =   1.59011692701938E-13  5.06373634275561E-01
 cg2d: Sum(rhs),rhsMax =   1.43718370537727E-13  5.07158091909179E-01
 cg2d: Sum(rhs),rhsMax =  -2.41195952099815E-14  5.07926013192235E-01
 cg2d: Sum(rhs),rhsMax =  -1.65076285973953E-13  5.08677124654303E-01
 cg2d: Sum(rhs),rhsMax =   1.26329502414535E-13  5.09410423072139E-01
 cg2d: Sum(rhs),rhsMax =   2.31106800363534E-13  5.10127269345542E-01
 cg2d: Sum(rhs),rhsMax =  -4.93771690202038E-14  5.10829145048934E-01
 cg2d: Sum(rhs),rhsMax =  -1.00169872396805E-13  5.11515906618310E-01
 cg2d: Sum(rhs),rhsMax =   2.54934962029552E-14  5.12187761749605E-01
 cg2d: Sum(rhs),rhsMax =   2.49494869208888E-13  5.12844980338830E-01
 cg2d: Sum(rhs),rhsMax =  -1.70391478704346E-13  5.13487583486525E-01
 cg2d: Sum(rhs),rhsMax =  -3.92991195141690E-13  5.14115726142233E-01
 cg2d: Sum(rhs),rhsMax =   2.93418067620621E-13  5.14728989475182E-01
 cg2d: Sum(rhs),rhsMax =   6.33382235548652E-14  5.15328890436390E-01
 cg2d: Sum(rhs),rhsMax =  -2.70755640130460E-14  5.15914225595910E-01
 cg2d: Sum(rhs),rhsMax =  -2.04058991926104E-13  5.16486621496444E-01
 cg2d: Sum(rhs),rhsMax =   1.63702384980979E-13  5.17045518536846E-01
 cg2d: Sum(rhs),rhsMax =   6.82370826510237E-14  5.17591616732958E-01
 cg2d: Sum(rhs),rhsMax =   1.83311699153421E-13  5.18125430424706E-01
 cg2d: Sum(rhs),rhsMax =   3.07892600304172E-13  5.18647380990381E-01
 cg2d: Sum(rhs),rhsMax =  -2.36366481942696E-13  5.19158494455315E-01
 cg2d: Sum(rhs),rhsMax =   5.22776266720371E-14  5.19660534713235E-01
 cg2d: Sum(rhs),rhsMax =  -9.23150444975818E-14  5.20156129881851E-01
 cg2d: Sum(rhs),rhsMax =   1.51226253741754E-13  5.20642839923605E-01
 cg2d: Sum(rhs),rhsMax =  -1.11133324764978E-13  5.21121027192873E-01
 cg2d: Sum(rhs),rhsMax =   1.93997595765438E-13  5.21591348409597E-01
 cg2d: Sum(rhs),rhsMax =  -2.75751643741273E-13  5.22045920983663E-01
 cg2d: Sum(rhs),rhsMax =  -7.86870568703080E-15  5.22491593210633E-01
 cg2d: Sum(rhs),rhsMax =   1.57457380467463E-13  5.22932102447166E-01
 cg2d: Sum(rhs),rhsMax =  -2.27984298106776E-13  5.23367691691537E-01
 cg2d: Sum(rhs),rhsMax =  -2.31245578241612E-13  5.23798644557449E-01
 cg2d: Sum(rhs),rhsMax =   1.75415237890775E-14  5.24236458951600E-01
 cg2d: Sum(rhs),rhsMax =  -5.00710584105946E-14  5.24668254515809E-01
 cg2d: Sum(rhs),rhsMax =   9.36611899149398E-14  5.25094379962459E-01
 cg2d: Sum(rhs),rhsMax =  -4.87387907810444E-14  5.25514376129812E-01
 cg2d: Sum(rhs),rhsMax =  -3.37369021607969E-14  5.25912693189713E-01
 cg2d: Sum(rhs),rhsMax =  -1.12618248060414E-13  5.26128573852885E-01
 cg2d: Sum(rhs),rhsMax =  -1.13034581694649E-13  5.26334508721547E-01
 cg2d: Sum(rhs),rhsMax =   6.02434768737226E-14  5.26533794762736E-01
 cg2d: Sum(rhs),rhsMax =  -3.88439280740727E-14  5.26725165717671E-01
 cg2d: Sum(rhs),rhsMax =  -1.34572908372377E-13  5.26908908969241E-01
 cg2d: Sum(rhs),rhsMax =  -2.68951527715444E-14  5.27084280171086E-01
 cg2d: Sum(rhs),rhsMax =   1.49755208234126E-13  5.27251207641929E-01
 cg2d: Sum(rhs),rhsMax =  -2.79207212905419E-13  5.27409757705075E-01
 cg2d: Sum(rhs),rhsMax =   1.47423739882413E-13  5.27559894083511E-01
 cg2d: Sum(rhs),rhsMax =   2.54435361668470E-13  5.27696815917869E-01
 cg2d: Sum(rhs),rhsMax =  -7.83678677507282E-14  5.27820366124107E-01
 cg2d: Sum(rhs),rhsMax =  -1.95676808090184E-14  5.27935417243132E-01
 cg2d: Sum(rhs),rhsMax =   2.51715315258139E-13  5.28033255200837E-01
 cg2d: Sum(rhs),rhsMax =  -1.48339673877729E-13  5.28112523325994E-01
 cg2d: Sum(rhs),rhsMax =   4.64905891561784E-14  5.28173436755418E-01
 cg2d: Sum(rhs),rhsMax =  -8.45989944764369E-14  5.28216638571498E-01
 cg2d: Sum(rhs),rhsMax =   1.93733917797090E-13  5.28243215030839E-01
 cg2d: Sum(rhs),rhsMax =  -5.23331378232683E-14  5.28252393555661E-01
 cg2d: Sum(rhs),rhsMax =   1.45494727377127E-13  5.28248239846442E-01
 cg2d: Sum(rhs),rhsMax =  -4.33583724479547E-13  5.28232522625966E-01
 cg2d: Sum(rhs),rhsMax =  -5.31102939405059E-14  5.28206905175321E-01
 cg2d: Sum(rhs),rhsMax =   4.01761957036229E-14  5.28172870448862E-01
 cg2d: Sum(rhs),rhsMax =  -2.87270207621759E-14  5.28131682479184E-01
 cg2d: Sum(rhs),rhsMax =  -9.99061944284563E-14  5.28084228381033E-01
 cg2d: Sum(rhs),rhsMax =   2.04794514679918E-13  5.28031175006694E-01
 cg2d: Sum(rhs),rhsMax =   1.12465592394528E-13  5.27973279091577E-01
 cg2d: Sum(rhs),rhsMax =  -9.68253255351215E-14  5.27911128867276E-01
 cg2d: Sum(rhs),rhsMax =  -2.15938378289593E-13  5.27845105012733E-01
 cg2d: Sum(rhs),rhsMax =   2.64857580312139E-13  5.27772579215422E-01
 cg2d: Sum(rhs),rhsMax =  -2.36616282123236E-14  5.27693183150649E-01
 cg2d: Sum(rhs),rhsMax =   5.91054982734818E-14  5.27606484749745E-01
 cg2d: Sum(rhs),rhsMax =  -5.47756284774437E-14  5.27511979305635E-01
 cg2d: Sum(rhs),rhsMax =   1.59275370670287E-13  5.27409239603156E-01
 cg2d: Sum(rhs),rhsMax =   7.58837437331294E-14  5.27297886235133E-01
 cg2d: Sum(rhs),rhsMax =   1.56569202047763E-13  5.27177597849945E-01
 cg2d: Sum(rhs),rhsMax =  -1.88682403035045E-13  5.27049364411601E-01
 cg2d: Sum(rhs),rhsMax =   9.46742684249102E-14  5.26913100018149E-01
 cg2d: Sum(rhs),rhsMax =   1.00891517362811E-14  5.26768071293603E-01
 cg2d: Sum(rhs),rhsMax =   1.62203583897735E-13  5.26614265006914E-01
 cg2d: Sum(rhs),rhsMax =  -4.50653403483159E-13  5.26449549215935E-01
 cg2d: Sum(rhs),rhsMax =   7.82984788116892E-14  5.26275781883993E-01
 cg2d: Sum(rhs),rhsMax =  -1.51184620378331E-13  5.26093061210850E-01
 cg2d: Sum(rhs),rhsMax =   4.13835632429027E-14  5.25901518572717E-01
 cg2d: Sum(rhs),rhsMax =   2.09277040141842E-14  5.25701434438302E-01
 cg2d: Sum(rhs),rhsMax =  -1.58581481279896E-13  5.25493140542223E-01
 cg2d: Sum(rhs),rhsMax =  -1.01502140026355E-13  5.25276943897214E-01
 cg2d: Sum(rhs),rhsMax =   2.17811879643648E-13  5.25053253140256E-01
 cg2d: Sum(rhs),rhsMax =   2.11775041947249E-14  5.24822525998102E-01
 cg2d: Sum(rhs),rhsMax =   1.64396274371370E-13  5.24585778901943E-01
 cg2d: Sum(rhs),rhsMax =   1.35280675550575E-13  5.24344230006152E-01
 cg2d: Sum(rhs),rhsMax =   6.89448498292222E-14  5.24098480153085E-01
 cg2d: Sum(rhs),rhsMax =   3.44294037724069E-13  5.23849156033432E-01
 cg2d: Sum(rhs),rhsMax =   1.50712775592865E-14  5.23596406011054E-01
 cg2d: Sum(rhs),rhsMax =   2.80414580444699E-13  5.23340863118195E-01
 cg2d: Sum(rhs),rhsMax =  -2.54934962029552E-14  5.23083171967896E-01
 cg2d: Sum(rhs),rhsMax =  -4.08839628818214E-14  5.22823793677627E-01
 cg2d: Sum(rhs),rhsMax =   1.55986334959834E-13  5.22563257994340E-01
 cg2d: Sum(rhs),rhsMax =   1.84949278114743E-13  5.22305787337226E-01
 cg2d: Sum(rhs),rhsMax =  -6.18949336228525E-14  5.22048877304960E-01
 cg2d: Sum(rhs),rhsMax =  -3.23949200797813E-13  5.21791941986134E-01
 cg2d: Sum(rhs),rhsMax =   5.24996712769621E-14  5.21535221307648E-01
 cg2d: Sum(rhs),rhsMax =  -5.02514696520961E-14  5.21278909844756E-01
 cg2d: Sum(rhs),rhsMax =   4.27435864480685E-14  5.21022912412395E-01
 cg2d: Sum(rhs),rhsMax =  -3.50094953027735E-13  5.20767610942298E-01
 cg2d: Sum(rhs),rhsMax =   9.82686154671342E-14  5.20513367569043E-01
 cg2d: Sum(rhs),rhsMax =   2.46053177832550E-14  5.20260399143840E-01
 cg2d: Sum(rhs),rhsMax =   8.29614155151148E-14  5.20008997196182E-01
 cg2d: Sum(rhs),rhsMax =  -1.21638810135494E-13  5.19759790301074E-01
 cg2d: Sum(rhs),rhsMax =  -1.67435509901281E-13  5.19512660663527E-01
 cg2d: Sum(rhs),rhsMax =   3.21853654838833E-13  5.19267526374033E-01
 cg2d: Sum(rhs),rhsMax =  -1.20334298081559E-13  5.19024034395883E-01
 cg2d: Sum(rhs),rhsMax =  -5.30547827892747E-14  5.18783256330923E-01
 cg2d: Sum(rhs),rhsMax =   1.62370117351429E-13  5.18544727816158E-01
 cg2d: Sum(rhs),rhsMax =  -1.74082970261225E-13  5.18308434830138E-01
 cg2d: Sum(rhs),rhsMax =   5.76899639170847E-14  5.18073823455137E-01
 cg2d: Sum(rhs),rhsMax =  -7.17481629664007E-15  5.17840217858859E-01
 cg2d: Sum(rhs),rhsMax =   4.88498130835069E-14  5.17605494591997E-01
 cg2d: Sum(rhs),rhsMax =   4.03149735817010E-14  5.17369039658179E-01
 cg2d: Sum(rhs),rhsMax =  -2.09665618200461E-13  5.17129946321957E-01
 cg2d: Sum(rhs),rhsMax =  -2.10664818922623E-13  5.16887140185425E-01
 cg2d: Sum(rhs),rhsMax =  -1.45175538257547E-13  5.16639668326839E-01
 cg2d: Sum(rhs),rhsMax =   2.74141820355567E-13  5.16386923065969E-01
 cg2d: Sum(rhs),rhsMax =  -2.01630379059736E-13  5.16128055152170E-01
 cg2d: Sum(rhs),rhsMax =  -1.56402668594069E-13  5.15862429519355E-01
 cg2d: Sum(rhs),rhsMax =  -1.67602043354975E-13  5.15384482999971E-01
 cg2d: Sum(rhs),rhsMax =   2.77555756156289E-13  5.14875386860026E-01
 cg2d: Sum(rhs),rhsMax =  -2.65898414397725E-14  5.14359471836897E-01
 cg2d: Sum(rhs),rhsMax =   7.74796893310281E-14  5.13836907433888E-01
 cg2d: Sum(rhs),rhsMax =   6.68493038702422E-14  5.13308278274088E-01
 cg2d: Sum(rhs),rhsMax =   1.79592452020927E-13  5.12774702270394E-01
 cg2d: Sum(rhs),rhsMax =   6.64468480238156E-14  5.12237181813877E-01
 cg2d: Sum(rhs),rhsMax =  -2.51632048531292E-13  5.11695872300852E-01
 cg2d: Sum(rhs),rhsMax =   9.87959714038311E-14  5.11152779089608E-01
 cg2d: Sum(rhs),rhsMax =  -1.02376440658247E-13  5.10608071965563E-01
 cg2d: Sum(rhs),rhsMax =  -1.73069891751254E-13  5.10062951539558E-01
 cg2d: Sum(rhs),rhsMax =  -4.78228567857286E-14  5.09518546455993E-01
 cg2d: Sum(rhs),rhsMax =  -2.53630449975617E-13  5.08975808124722E-01
 cg2d: Sum(rhs),rhsMax =   3.36258798583344E-14  5.08434682690466E-01
 cg2d: Sum(rhs),rhsMax =   7.43849426498855E-15  5.07895466121889E-01
 cg2d: Sum(rhs),rhsMax =   1.66866520601161E-13  5.07358493122207E-01
 cg2d: Sum(rhs),rhsMax =  -1.42913458844873E-13  5.06824827378145E-01
 cg2d: Sum(rhs),rhsMax =  -7.44820871645402E-14  5.06294512278917E-01
 cg2d: Sum(rhs),rhsMax =  -2.56905607898261E-13  5.05767781614864E-01
 cg2d: Sum(rhs),rhsMax =   7.74380559676047E-14  5.05244792584545E-01
 cg2d: Sum(rhs),rhsMax =   1.19348975147204E-14  5.04725616974383E-01
 cg2d: Sum(rhs),rhsMax =   1.57235335862538E-13  5.04181952462619E-01
 cg2d: Sum(rhs),rhsMax =  -9.64506252643105E-15  5.03607168716920E-01
 cg2d: Sum(rhs),rhsMax =   9.80743264378248E-14  5.03036315081320E-01
 cg2d: Sum(rhs),rhsMax =   1.81937798160448E-14  5.02470251210843E-01
 cg2d: Sum(rhs),rhsMax =   2.96013213940682E-14  5.01908915068417E-01
 cg2d: Sum(rhs),rhsMax =  -3.68038932663239E-14  5.01352336885351E-01
 cg2d: Sum(rhs),rhsMax =  -4.41313652288500E-15  5.00800566855871E-01
 cg2d: Sum(rhs),rhsMax =   1.12021503184678E-13  5.00254564098037E-01
 cg2d: Sum(rhs),rhsMax =  -8.04356581340926E-14  4.99714180935337E-01
 cg2d: Sum(rhs),rhsMax =  -1.07497344359331E-13  4.99178615465658E-01
 cg2d: Sum(rhs),rhsMax =  -3.01647595790655E-13  4.98647206625417E-01
 cg2d: Sum(rhs),rhsMax =  -1.07969189144796E-13  4.98125002739118E-01
 cg2d: Sum(rhs),rhsMax =  -1.65562008547226E-13  4.97606185156465E-01
 cg2d: Sum(rhs),rhsMax =   1.42025280425173E-13  4.97090153196754E-01
 cg2d: Sum(rhs),rhsMax =  -2.56877852322646E-14  4.96576414153994E-01
 cg2d: Sum(rhs),rhsMax =  -3.11972669919669E-13  4.96061820438685E-01
 cg2d: Sum(rhs),rhsMax =   1.15019105351166E-13  4.95545866012402E-01
 cg2d: Sum(rhs),rhsMax =  -1.14075415780235E-14  4.95028349976766E-01
 cg2d: Sum(rhs),rhsMax =  -3.69398955868405E-13  4.94509129206947E-01
 cg2d: Sum(rhs),rhsMax =  -1.84699477934203E-13  4.93988133330362E-01
 cg2d: Sum(rhs),rhsMax =   1.89639970393785E-13  4.93466154334895E-01
 cg2d: Sum(rhs),rhsMax =   2.48398523972071E-13  4.92945612781675E-01
 cg2d: Sum(rhs),rhsMax =  -2.27456942170079E-14  4.92427069486725E-01
 cg2d: Sum(rhs),rhsMax =  -1.38639100200066E-14  4.91910667818930E-01
 cg2d: Sum(rhs),rhsMax =  -3.43558514970255E-13  4.91396350475880E-01
 cg2d: Sum(rhs),rhsMax =   2.57571741713036E-14  4.90886752098535E-01
 cg2d: Sum(rhs),rhsMax =  -6.76819711387111E-14  4.90379880789504E-01
 cg2d: Sum(rhs),rhsMax =   5.19029264012261E-15  4.89875647515527E-01
 cg2d: Sum(rhs),rhsMax =   1.03514419258488E-13  4.89373848449733E-01
 cg2d: Sum(rhs),rhsMax =  -6.19643225618915E-14  4.88872686671094E-01
 cg2d: Sum(rhs),rhsMax =  -1.15865650407443E-13  4.88371331994378E-01
 cg2d: Sum(rhs),rhsMax =   3.69287933565943E-14  4.87868927985550E-01
 cg2d: Sum(rhs),rhsMax =   6.62803145701218E-14  4.87364903308773E-01
 cg2d: Sum(rhs),rhsMax =   1.69003699923564E-13  4.86859093567291E-01
 cg2d: Sum(rhs),rhsMax =  -1.58179025433469E-13  4.86262195622482E-01
 cg2d: Sum(rhs),rhsMax =  -3.20715676238592E-14  4.85663686457212E-01
 cg2d: Sum(rhs),rhsMax =  -3.40422134925689E-14  4.85066816315976E-01
 cg2d: Sum(rhs),rhsMax =   9.93927162795671E-14  4.84472283263370E-01
 cg2d: Sum(rhs),rhsMax =   2.26291207994223E-13  4.83881158480396E-01
 cg2d: Sum(rhs),rhsMax =   2.26207941267376E-13  4.83294218483173E-01
 cg2d: Sum(rhs),rhsMax =  -1.49977252839051E-13  4.82712965194296E-01
 cg2d: Sum(rhs),rhsMax =  -2.15633066957821E-13  4.82137054155087E-01
 cg2d: Sum(rhs),rhsMax =  -1.54945500874248E-13  4.81566395534713E-01
 cg2d: Sum(rhs),rhsMax =   2.66231481305113E-13  4.81001356273072E-01
 cg2d: Sum(rhs),rhsMax =  -2.55462317966249E-13  4.80441857461721E-01
 cg2d: Sum(rhs),rhsMax =  -3.99708044440672E-13  4.79893785460411E-01
 cg2d: Sum(rhs),rhsMax =  -1.35988442728774E-13  4.79352792927620E-01
 cg2d: Sum(rhs),rhsMax =   7.46069872548105E-14  4.78817934607582E-01
 cg2d: Sum(rhs),rhsMax =   6.59056142993109E-14  4.78288224604950E-01
 cg2d: Sum(rhs),rhsMax =   2.51257348260481E-13  4.77763064376469E-01
 cg2d: Sum(rhs),rhsMax =   4.49792980639074E-13  4.77241729210178E-01
 cg2d: Sum(rhs),rhsMax =   4.27990975992998E-14  4.76723620715248E-01
 cg2d: Sum(rhs),rhsMax =   2.46025422256935E-13  4.76207945787607E-01
 cg2d: Sum(rhs),rhsMax =   2.17520446099684E-13  4.75694098404898E-01
 cg2d: Sum(rhs),rhsMax =  -9.78939151963232E-14  4.75181533083216E-01
 cg2d: Sum(rhs),rhsMax =  -3.36133898493074E-13  4.74669722160684E-01
 cg2d: Sum(rhs),rhsMax =   2.18020046460765E-13  4.74158255652062E-01
 cg2d: Sum(rhs),rhsMax =  -1.60940705207224E-13  4.73646823325770E-01
 cg2d: Sum(rhs),rhsMax =  -1.01862962509358E-14  4.73134668376601E-01
 cg2d: Sum(rhs),rhsMax =  -3.21548343507061E-14  4.72621340855025E-01
 cg2d: Sum(rhs),rhsMax =   2.44665399051769E-14  4.72107325966635E-01
 cg2d: Sum(rhs),rhsMax =  -5.27355936696949E-16  4.71593102449831E-01
 cg2d: Sum(rhs),rhsMax =  -9.35224120368616E-14  4.71079486133200E-01
 cg2d: Sum(rhs),rhsMax =  -2.74127942567759E-13  4.70566579067156E-01
 cg2d: Sum(rhs),rhsMax =   1.07538977722754E-13  4.70046033286194E-01
 cg2d: Sum(rhs),rhsMax =   5.11396480717963E-14  4.69526999542637E-01
 cg2d: Sum(rhs),rhsMax =   4.14529521819418E-14  4.69009766954432E-01
 cg2d: Sum(rhs),rhsMax =  -9.71167590790856E-14  4.68494916927256E-01
 cg2d: Sum(rhs),rhsMax =  -1.86989312922492E-13  4.67982988312793E-01
 cg2d: Sum(rhs),rhsMax =   1.37112543541207E-14  4.67474463040039E-01
 cg2d: Sum(rhs),rhsMax =  -2.35672592552305E-13  4.66969760498485E-01
 cg2d: Sum(rhs),rhsMax =   1.59802726606983E-13  4.66469277375175E-01
 cg2d: Sum(rhs),rhsMax =   4.75869343929958E-14  4.65973303979610E-01
 cg2d: Sum(rhs),rhsMax =  -5.72319969194268E-14  4.65482050602393E-01
 cg2d: Sum(rhs),rhsMax =   1.70280456401883E-13  4.64995425417793E-01
 cg2d: Sum(rhs),rhsMax =   1.36751721058204E-13  4.64513472468328E-01
 cg2d: Sum(rhs),rhsMax =  -8.67361737988404E-14  4.64036019979749E-01
 cg2d: Sum(rhs),rhsMax =  -2.41570652370626E-13  4.63562593906684E-01
 cg2d: Sum(rhs),rhsMax =  -1.02667874202211E-13  4.63092978224722E-01
 cg2d: Sum(rhs),rhsMax =  -1.19515508600898E-13  4.62626624621024E-01
 cg2d: Sum(rhs),rhsMax =   1.52836077127461E-13  4.62162870259374E-01
 cg2d: Sum(rhs),rhsMax =  -1.21624932347686E-13  4.62053157505820E-01
 cg2d: Sum(rhs),rhsMax =  -3.27238236508265E-14  4.62163288247069E-01
 cg2d: Sum(rhs),rhsMax =   4.22162305113716E-14  4.62271426022657E-01
 cg2d: Sum(rhs),rhsMax =   2.96873636784767E-13  4.62377959100270E-01
 cg2d: Sum(rhs),rhsMax =   4.01068067645838E-15  4.62483340576836E-01
 cg2d: Sum(rhs),rhsMax =   5.04360442299401E-13  4.62588214815808E-01
 cg2d: Sum(rhs),rhsMax =  -7.98666688339722E-14  4.62693386711891E-01
 cg2d: Sum(rhs),rhsMax =   9.14684994413051E-14  4.62799436757559E-01
 cg2d: Sum(rhs),rhsMax =   4.20885548635397E-13  4.62906751480677E-01
 cg2d: Sum(rhs),rhsMax =  -7.63694663064030E-14  4.63015672352922E-01
 cg2d: Sum(rhs),rhsMax =  -9.80188152865935E-14  4.63125770865878E-01
 cg2d: Sum(rhs),rhsMax =  -2.34048891378791E-13  4.63239715045370E-01
 cg2d: Sum(rhs),rhsMax =   1.64299129856715E-13  4.63355977604338E-01
 cg2d: Sum(rhs),rhsMax =  -7.10959069394335E-14  4.63475093784828E-01
 cg2d: Sum(rhs),rhsMax =  -1.28175248192974E-13  4.63597084192380E-01
 cg2d: Sum(rhs),rhsMax =   2.79568035388422E-13  4.63722001131422E-01
 cg2d: Sum(rhs),rhsMax =  -9.91429160990265E-14  4.63849195858195E-01
 cg2d: Sum(rhs),rhsMax =  -1.79897763352699E-13  4.63977661105617E-01
 cg2d: Sum(rhs),rhsMax =   1.60926827419416E-13  4.64107495175522E-01
 cg2d: Sum(rhs),rhsMax =  -8.74300631892311E-14  4.64238386973452E-01
 cg2d: Sum(rhs),rhsMax =   1.21055943047566E-13  4.64369943429129E-01
 cg2d: Sum(rhs),rhsMax =   1.33087985076941E-14  4.64501681807107E-01
 cg2d: Sum(rhs),rhsMax =   1.26551547019460E-13  4.64633100906011E-01
 cg2d: Sum(rhs),rhsMax =   3.33080785175355E-13  4.64763776029655E-01
 cg2d: Sum(rhs),rhsMax =  -1.47909462455686E-13  4.64893454888245E-01
 cg2d: Sum(rhs),rhsMax =  -2.41487385643779E-13  4.65021336261352E-01
 cg2d: Sum(rhs),rhsMax =   3.63292729232967E-13  4.65146991539859E-01
 cg2d: Sum(rhs),rhsMax =  -5.14865927669916E-14  4.65270030161554E-01
 cg2d: Sum(rhs),rhsMax =   6.05071548420710E-15  4.65390164897697E-01
 cg2d: Sum(rhs),rhsMax =   9.65061364155417E-14  4.65507120629288E-01
 cg2d: Sum(rhs),rhsMax =   8.21703816100694E-14  4.65620701486807E-01
 cg2d: Sum(rhs),rhsMax =   2.49286702391771E-13  4.65730984753737E-01
 cg2d: Sum(rhs),rhsMax =   2.71505040672082E-13  4.65838350679022E-01
 cg2d: Sum(rhs),rhsMax =  -2.25680585330679E-13  4.65943081787465E-01
 cg2d: Sum(rhs),rhsMax =  -2.12607709215717E-13  4.66045266449291E-01
 cg2d: Sum(rhs),rhsMax =  -4.91134910518554E-14  4.66144854028285E-01
 cg2d: Sum(rhs),rhsMax =  -2.06071271158237E-13  4.66242060979481E-01
 cg2d: Sum(rhs),rhsMax =   1.47659662275146E-14  4.66337177459798E-01
 cg2d: Sum(rhs),rhsMax =   2.18977613819504E-13  4.66430537733824E-01
 cg2d: Sum(rhs),rhsMax =   3.61752294786299E-13  4.66522507734539E-01
 cg2d: Sum(rhs),rhsMax =  -1.16517906434410E-13  4.66613425574766E-01
 cg2d: Sum(rhs),rhsMax =   1.08107967022875E-14  4.66703653651503E-01
 cg2d: Sum(rhs),rhsMax =   6.83758605291018E-14  4.66793829191837E-01
 cg2d: Sum(rhs),rhsMax =   1.43718370537727E-13  4.66884131514489E-01
 cg2d: Sum(rhs),rhsMax =   1.78843051479305E-13  4.66975066235261E-01
 cg2d: Sum(rhs),rhsMax =   1.74957270893117E-13  4.67066926755701E-01
 cg2d: Sum(rhs),rhsMax =  -5.97577543004491E-14  4.67159852433701E-01
 cg2d: Sum(rhs),rhsMax =   5.88973314563646E-14  4.67253965176164E-01
 cg2d: Sum(rhs),rhsMax =   1.41803235820248E-13  4.67349316712863E-01
 cg2d: Sum(rhs),rhsMax =  -4.09033917847523E-13  4.67445959731883E-01
 cg2d: Sum(rhs),rhsMax =  -1.43565714871841E-13  4.67543716578575E-01
 cg2d: Sum(rhs),rhsMax =   1.62925228863742E-13  4.67642591370341E-01
 cg2d: Sum(rhs),rhsMax =   1.77996506423028E-13  4.67742542329696E-01
 cg2d: Sum(rhs),rhsMax =  -1.13756226660655E-13  4.67843420751585E-01
 cg2d: Sum(rhs),rhsMax =  -1.50490730987940E-13  4.67945104100594E-01
 cg2d: Sum(rhs),rhsMax =  -1.36321509636161E-13  4.68047628857250E-01
 cg2d: Sum(rhs),rhsMax =   2.25319762847676E-13  4.68150563139562E-01
 cg2d: Sum(rhs),rhsMax =  -1.02695629777827E-13  4.68253726711144E-01
 cg2d: Sum(rhs),rhsMax =  -2.39017139413988E-13  4.68413618295440E-01
 cg2d: Sum(rhs),rhsMax =  -1.40859546249317E-14  4.68616605924937E-01
 cg2d: Sum(rhs),rhsMax =  -2.27901031379929E-13  4.68818994553999E-01
 cg2d: Sum(rhs),rhsMax =  -2.80275802566621E-13  4.69019879264979E-01
 cg2d: Sum(rhs),rhsMax =   2.78999046088302E-13  4.69191576038150E-01
 cg2d: Sum(rhs),rhsMax =  -3.02952107844590E-14  4.69360827549317E-01
 cg2d: Sum(rhs),rhsMax =  -1.86933801771261E-14  4.69528953626496E-01
 cg2d: Sum(rhs),rhsMax =  -3.80390163812194E-14  4.69695758857346E-01
 cg2d: Sum(rhs),rhsMax =   2.94278490464706E-13  4.69861419489205E-01
 cg2d: Sum(rhs),rhsMax =  -3.92658128234302E-13  4.70026108654530E-01
 cg2d: Sum(rhs),rhsMax =  -6.54615250894608E-14  4.70190060587022E-01
 cg2d: Sum(rhs),rhsMax =  -7.23587856299446E-14  4.70353879073339E-01
 cg2d: Sum(rhs),rhsMax =  -3.02050051637082E-13  4.70517926421106E-01
 cg2d: Sum(rhs),rhsMax =  -1.87738713464114E-13  4.70682486410730E-01
 cg2d: Sum(rhs),rhsMax =   3.79973830177960E-14  4.70847732545821E-01
 cg2d: Sum(rhs),rhsMax =   8.03385136194379E-14  4.71014423421175E-01
 cg2d: Sum(rhs),rhsMax =   3.71785935371349E-14  4.71183511654843E-01
 cg2d: Sum(rhs),rhsMax =  -2.81802359225480E-13  4.71354057484734E-01
 cg2d: Sum(rhs),rhsMax =  -9.27868892830475E-14  4.71527646774982E-01
 cg2d: Sum(rhs),rhsMax =  -1.78065895362067E-13  4.71704314931839E-01
 cg2d: Sum(rhs),rhsMax =  -3.35370620163644E-13  4.71884005742337E-01
 cg2d: Sum(rhs),rhsMax =  -3.13957193576186E-13  4.72066961660694E-01
 cg2d: Sum(rhs),rhsMax =   1.15199516592668E-13  4.72253485866173E-01
 cg2d: Sum(rhs),rhsMax =  -2.06668016033973E-13  4.72443509985837E-01
 cg2d: Sum(rhs),rhsMax =   1.63688507193172E-13  4.72637487763440E-01
 cg2d: Sum(rhs),rhsMax =  -3.56617513297408E-13  4.72835181260242E-01
 cg2d: Sum(rhs),rhsMax =   9.60342916300760E-15  4.73036938465052E-01
 cg2d: Sum(rhs),rhsMax =   1.29535271398140E-13  4.73242077889878E-01
 cg2d: Sum(rhs),rhsMax =  -1.56250012928183E-13  4.73450446630416E-01
 cg2d: Sum(rhs),rhsMax =  -2.33979502439752E-14  4.73661670386311E-01
 cg2d: Sum(rhs),rhsMax =  -9.97396609747625E-14  4.73875247380684E-01
 cg2d: Sum(rhs),rhsMax =  -9.37722122174023E-14  4.74090998860675E-01
 cg2d: Sum(rhs),rhsMax =  -8.03523914072457E-15  4.74308516387666E-01
 cg2d: Sum(rhs),rhsMax =   1.53502210942236E-13  4.74527270984854E-01
 cg2d: Sum(rhs),rhsMax =  -2.69631539318027E-13  4.74746552150611E-01
 cg2d: Sum(rhs),rhsMax =   1.01474384450739E-13  4.74965273625458E-01
 cg2d: Sum(rhs),rhsMax =   1.42455491847215E-13  4.75182822626601E-01
 cg2d: Sum(rhs),rhsMax =   1.32976962774478E-13  4.75398504550167E-01
 cg2d: Sum(rhs),rhsMax =   1.60829682904762E-13  4.75611734151027E-01
 cg2d: Sum(rhs),rhsMax =   1.50254808595207E-13  4.75821925557672E-01
 cg2d: Sum(rhs),rhsMax =   1.37084787965591E-13  4.76028507801437E-01
 cg2d: Sum(rhs),rhsMax =   8.23507928515710E-14  4.76230995916814E-01
 cg2d: Sum(rhs),rhsMax =   1.60788049541338E-13  4.76428978112362E-01
 cg2d: Sum(rhs),rhsMax =   8.25450818808804E-14  4.76622111522248E-01
 cg2d: Sum(rhs),rhsMax =  -1.70363723128730E-13  4.76810135437266E-01
 cg2d: Sum(rhs),rhsMax =   2.64177568709556E-13  4.76992993821204E-01
 cg2d: Sum(rhs),rhsMax =  -1.50046641778090E-13  4.77170546791277E-01
 cg2d: Sum(rhs),rhsMax =  -1.18502430090928E-13  4.77342784727316E-01
 cg2d: Sum(rhs),rhsMax =   1.82187598340988E-13  4.77509870934508E-01
 cg2d: Sum(rhs),rhsMax =   1.49991130626859E-13  4.77671922303321E-01
 cg2d: Sum(rhs),rhsMax =  -4.11004563716233E-13  4.77829382696569E-01
 cg2d: Sum(rhs),rhsMax =  -1.60538249360798E-13  4.77982577991427E-01
 cg2d: Sum(rhs),rhsMax =  -7.91311460801580E-14  4.78131982820834E-01
 cg2d: Sum(rhs),rhsMax =   1.34614541735800E-15  4.78278041383766E-01
 cg2d: Sum(rhs),rhsMax =   1.07192033027559E-13  4.78421253144068E-01
 cg2d: Sum(rhs),rhsMax =  -5.99797989053741E-14  4.78562148311236E-01
 cg2d: Sum(rhs),rhsMax =  -2.05488404070309E-13  4.78701056905712E-01
 cg2d: Sum(rhs),rhsMax =  -2.51132448170210E-13  4.78839242516002E-01
 cg2d: Sum(rhs),rhsMax =   6.73072708679001E-15  4.78977002879731E-01
 cg2d: Sum(rhs),rhsMax =   9.45077349712165E-15  4.79114220741471E-01
 cg2d: Sum(rhs),rhsMax =  -1.54473656088783E-13  4.79251620236680E-01
 cg2d: Sum(rhs),rhsMax =  -1.10647602191705E-13  4.79388657225690E-01
 cg2d: Sum(rhs),rhsMax =   7.95752352900081E-14  4.79525423705386E-01
 cg2d: Sum(rhs),rhsMax =   4.07729405793589E-14  4.79662604345112E-01
 cg2d: Sum(rhs),rhsMax =   2.81719092498633E-14  4.79770706373178E-01
 cg2d: Sum(rhs),rhsMax =  -2.18824958153618E-13  4.79879402994680E-01
 cg2d: Sum(rhs),rhsMax =   3.10446113260809E-14  4.79990035614835E-01
 cg2d: Sum(rhs),rhsMax =  -1.16129328375791E-13  4.80103177059007E-01
 cg2d: Sum(rhs),rhsMax =   3.43614026121486E-14  4.80217959655217E-01
 cg2d: Sum(rhs),rhsMax =   1.11230469279633E-13  4.80335552005253E-01
 cg2d: Sum(rhs),rhsMax =   2.16965334587371E-13  4.80454710922798E-01
 cg2d: Sum(rhs),rhsMax =   2.02435290752589E-13  4.80574692661099E-01
 cg2d: Sum(rhs),rhsMax =   3.00842684097802E-13  4.80694917126979E-01
 cg2d: Sum(rhs),rhsMax =   3.14193115968919E-13  4.80815020863772E-01
 cg2d: Sum(rhs),rhsMax =  -5.95912208467553E-14  4.80934638951443E-01
 cg2d: Sum(rhs),rhsMax =   3.20993231994748E-14  4.81053354436044E-01
 cg2d: Sum(rhs),rhsMax =   1.53488333154428E-14  4.81170117160096E-01
 cg2d: Sum(rhs),rhsMax =   1.27176047470812E-13  4.81286174481841E-01
 cg2d: Sum(rhs),rhsMax =   9.67281810204668E-15  4.81399845195388E-01
 cg2d: Sum(rhs),rhsMax =   1.62689306471009E-13  4.81511175277282E-01
 cg2d: Sum(rhs),rhsMax =   5.20833376427277E-14  4.81619913894562E-01
 cg2d: Sum(rhs),rhsMax =   3.34454686168328E-14  4.81725837517997E-01
 cg2d: Sum(rhs),rhsMax =  -2.11469730615477E-13  4.81828821377718E-01
 cg2d: Sum(rhs),rhsMax =  -3.83831855188532E-13  4.81928830493272E-01
 cg2d: Sum(rhs),rhsMax =  -3.98736599294125E-13  4.82025755713932E-01
 cg2d: Sum(rhs),rhsMax =  -2.22030727137223E-13  4.82119697639249E-01
 cg2d: Sum(rhs),rhsMax =  -4.26728097302487E-13  4.82210772708434E-01
 cg2d: Sum(rhs),rhsMax =  -2.96290769696839E-14  4.82299214273538E-01
 cg2d: Sum(rhs),rhsMax =  -1.79647963172158E-13  4.82385244545259E-01
 cg2d: Sum(rhs),rhsMax =  -1.72029057665668E-13  4.82469174685168E-01
 cg2d: Sum(rhs),rhsMax =  -4.95714580495132E-14  4.82551359638917E-01
 cg2d: Sum(rhs),rhsMax =  -1.97897254139434E-14  4.82632169015987E-01
 cg2d: Sum(rhs),rhsMax =   1.41553435639707E-14  4.82712002674451E-01
 cg2d: Sum(rhs),rhsMax =  -8.45712389008213E-14  4.82791258659504E-01
 cg2d: Sum(rhs),rhsMax =  -8.27254931223820E-14  4.82870351136900E-01
 cg2d: Sum(rhs),rhsMax =   2.77833311912445E-14  4.82949676474639E-01
 cg2d: Sum(rhs),rhsMax =   1.93123295133546E-13  4.83029571165923E-01
 cg2d: Sum(rhs),rhsMax =  -2.61318744421146E-14  4.83110386405589E-01
 cg2d: Sum(rhs),rhsMax =  -5.38180611187045E-14  4.83190729724854E-01
 cg2d: Sum(rhs),rhsMax =   4.34374758384592E-14  4.83270551214805E-01
 cg2d: Sum(rhs),rhsMax =   2.36935471242816E-13  4.83350422628170E-01
 cg2d: Sum(rhs),rhsMax =   1.02876041019329E-13  4.83430865171187E-01
 cg2d: Sum(rhs),rhsMax =   1.00530694879808E-13  4.83512377080390E-01
 cg2d: Sum(rhs),rhsMax =   1.20486953747445E-13  4.83595391994761E-01
 cg2d: Sum(rhs),rhsMax =  -4.62963001268690E-14  4.83680292358269E-01
 cg2d: Sum(rhs),rhsMax =   8.76659855819639E-14  4.83767403220691E-01
 cg2d: Sum(rhs),rhsMax =   1.62356239563621E-13  4.83856980589506E-01
 cg2d: Sum(rhs),rhsMax =  -1.13326015238613E-13  4.83949193273483E-01
 cg2d: Sum(rhs),rhsMax =   9.91012827356030E-14  4.84044079699632E-01
 cg2d: Sum(rhs),rhsMax =   6.15341111398493E-14  4.84141624489670E-01
 cg2d: Sum(rhs),rhsMax =   8.97754093287517E-14  4.84241754998838E-01
 cg2d: Sum(rhs),rhsMax =   1.02334807294824E-13  4.84342144270932E-01
 cg2d: Sum(rhs),rhsMax =  -3.01703106941886E-14  4.84442230313041E-01
 cg2d: Sum(rhs),rhsMax =  -6.45317133063372E-14  4.84541654729138E-01
 cg2d: Sum(rhs),rhsMax =  -1.25038868148408E-13  4.84640064962028E-01
 cg2d: Sum(rhs),rhsMax =  -2.37879160813748E-13  4.84737122869849E-01
 cg2d: Sum(rhs),rhsMax =  -4.51721993144361E-14  4.84832549973591E-01
 cg2d: Sum(rhs),rhsMax =  -4.43992065335408E-13  4.84926087093619E-01
 cg2d: Sum(rhs),rhsMax =   9.76996261670138E-14  4.85017530839480E-01
 cg2d: Sum(rhs),rhsMax =   7.30387972325275E-14  4.85106742910956E-01
 cg2d: Sum(rhs),rhsMax =   1.13811737811886E-13  4.85193645718596E-01
 cg2d: Sum(rhs),rhsMax =   1.28938526522404E-13  4.85278225024421E-01
 cg2d: Sum(rhs),rhsMax =  -1.20806142867025E-13  4.85360505264325E-01
 cg2d: Sum(rhs),rhsMax =  -1.33129618440364E-13  4.85440626032770E-01
 cg2d: Sum(rhs),rhsMax =  -2.04475325560338E-13  4.85518746150296E-01
 cg2d: Sum(rhs),rhsMax =   3.36952687973735E-14  4.85595104438629E-01
 cg2d: Sum(rhs),rhsMax =   3.65124597223598E-14  4.85669987723663E-01
 cg2d: Sum(rhs),rhsMax =  -2.05502281858116E-13  4.85743725876268E-01
 cg2d: Sum(rhs),rhsMax =  -1.08774100837650E-13  4.85816676881033E-01
 cg2d: Sum(rhs),rhsMax =  -1.02653996414404E-13  4.85889223267189E-01
 cg2d: Sum(rhs),rhsMax =  -2.49800180540660E-14  4.85961709540232E-01
 cg2d: Sum(rhs),rhsMax =   2.67549871146855E-13  4.86034502678794E-01
 cg2d: Sum(rhs),rhsMax =  -2.69229083471600E-15  4.86108006274265E-01
 cg2d: Sum(rhs),rhsMax =  -3.41116024316079E-14  4.86182646355284E-01
 cg2d: Sum(rhs),rhsMax =  -1.81757386918946E-13  4.86258789653430E-01
 cg2d: Sum(rhs),rhsMax =   1.51906265344337E-13  4.86336728128200E-01
 cg2d: Sum(rhs),rhsMax =   1.88418725066697E-13  4.86416149625088E-01
 cg2d: Sum(rhs),rhsMax =   1.78690395813419E-13  4.86495955354566E-01
 cg2d: Sum(rhs),rhsMax =  -6.08402217494586E-14  4.86574938430729E-01
 cg2d: Sum(rhs),rhsMax =   1.14172560294890E-13  4.86625814945957E-01
 cg2d: Sum(rhs),rhsMax =  -3.29139493437935E-13  4.86571496918956E-01
 cg2d: Sum(rhs),rhsMax =   1.79023462720806E-15  4.86516774887790E-01
 cg2d: Sum(rhs),rhsMax =  -7.86870568703080E-14  4.86464626628877E-01
 cg2d: Sum(rhs),rhsMax =   2.12274642308330E-13  4.86413977381492E-01
 cg2d: Sum(rhs),rhsMax =  -2.25430785150138E-13  4.86365976262358E-01
 cg2d: Sum(rhs),rhsMax =  -1.48561718482654E-13  4.86319828443025E-01
 cg2d: Sum(rhs),rhsMax =   4.55607773730549E-14  4.86276705802827E-01
 cg2d: Sum(rhs),rhsMax =   1.55778168142717E-13  4.86236359135078E-01
 cg2d: Sum(rhs),rhsMax =   2.59944843428173E-13  4.86199430253116E-01
 cg2d: Sum(rhs),rhsMax =  -7.38853422888042E-14  4.86164360806645E-01
 cg2d: Sum(rhs),rhsMax =   1.40304434737004E-13  4.86129355127263E-01
 cg2d: Sum(rhs),rhsMax =   1.98174809895590E-14  4.86093899961210E-01
 cg2d: Sum(rhs),rhsMax =   7.96862575924706E-14  4.86057523936183E-01
 cg2d: Sum(rhs),rhsMax =   2.32480701356508E-13  4.86019700916820E-01
 cg2d: Sum(rhs),rhsMax =   1.51628709588181E-13  4.85979915902911E-01
 cg2d: Sum(rhs),rhsMax =  -9.90874049477952E-14  4.85937629514976E-01
 cg2d: Sum(rhs),rhsMax =   1.24969479209369E-13  4.85892351866808E-01
 cg2d: Sum(rhs),rhsMax =   4.66293670342566E-15  4.85843633561780E-01
 cg2d: Sum(rhs),rhsMax =   3.02993741208013E-13  4.85791011082993E-01
 cg2d: Sum(rhs),rhsMax =  -2.16021645016440E-13  4.85734196023366E-01
 cg2d: Sum(rhs),rhsMax =  -1.35474964579885E-13  4.85672811081976E-01
 cg2d: Sum(rhs),rhsMax =  -1.10980669099092E-13  4.85606623025253E-01
 cg2d: Sum(rhs),rhsMax =   3.02272096242007E-13  4.85535457574289E-01
 cg2d: Sum(rhs),rhsMax =   1.58303925523740E-13  4.85459201634987E-01
 cg2d: Sum(rhs),rhsMax =  -1.01238462058006E-13  4.85377722416279E-01
 cg2d: Sum(rhs),rhsMax =  -4.98212582300539E-14  4.85291028881860E-01
 cg2d: Sum(rhs),rhsMax =   1.79828374413660E-13  4.85200209662102E-01
 cg2d: Sum(rhs),rhsMax =  -2.36755060001315E-14  4.85104463592415E-01
 cg2d: Sum(rhs),rhsMax =   9.31060784026272E-14  4.85003951291936E-01
 cg2d: Sum(rhs),rhsMax =   3.10265702019308E-13  4.84898967940423E-01
 cg2d: Sum(rhs),rhsMax =   1.90833460145257E-13  4.84789874838220E-01
 cg2d: Sum(rhs),rhsMax =   1.72542535814557E-13  4.84677072390121E-01
 cg2d: Sum(rhs),rhsMax =   5.67601521339611E-15  4.84560996526984E-01
 cg2d: Sum(rhs),rhsMax =   7.27473636885634E-14  4.84440336355332E-01
 cg2d: Sum(rhs),rhsMax =  -1.61579083446384E-13  4.84315464574023E-01
 cg2d: Sum(rhs),rhsMax =  -2.41334729977893E-13  4.84187155122566E-01
 cg2d: Sum(rhs),rhsMax =  -2.09415818019920E-13  4.84056269819930E-01
 cg2d: Sum(rhs),rhsMax =  -1.27675647831893E-13  4.83923405607809E-01
 cg2d: Sum(rhs),rhsMax =  -1.07400199844676E-13  4.83789060028546E-01
 cg2d: Sum(rhs),rhsMax =   7.95613575022003E-14  4.83653860533634E-01
 cg2d: Sum(rhs),rhsMax =  -2.93653990013354E-14  4.83518352769590E-01
 cg2d: Sum(rhs),rhsMax =  -8.96088758750579E-14  4.83383056616524E-01
 cg2d: Sum(rhs),rhsMax =   3.34107741473133E-13  4.83248434601730E-01
 cg2d: Sum(rhs),rhsMax =  -2.23987495218125E-14  4.83115179311056E-01
 cg2d: Sum(rhs),rhsMax =  -1.27745036770932E-13  4.82983752999957E-01
 cg2d: Sum(rhs),rhsMax =   2.26624274901610E-14  4.82854421602239E-01
 cg2d: Sum(rhs),rhsMax =  -2.42472708578134E-13  4.82727290859056E-01
 cg2d: Sum(rhs),rhsMax =   2.39488984199454E-13  4.82602460002925E-01
 cg2d: Sum(rhs),rhsMax =  -2.14217532601424E-13  4.82479197594594E-01
 cg2d: Sum(rhs),rhsMax =   3.16066617322974E-13  4.82356072344200E-01
 cg2d: Sum(rhs),rhsMax =   1.25691124175376E-13  4.82232796350709E-01
 cg2d: Sum(rhs),rhsMax =  -1.38833389229376E-13  4.82109047027116E-01
 cg2d: Sum(rhs),rhsMax =  -9.01501095995627E-14  4.81984507554440E-01
 cg2d: Sum(rhs),rhsMax =  -5.05012698326368E-14  4.81858514091156E-01
 cg2d: Sum(rhs),rhsMax =  -2.63095101260546E-13  4.81730897875119E-01
 cg2d: Sum(rhs),rhsMax =   2.44526621173691E-13  4.81601647006283E-01
 cg2d: Sum(rhs),rhsMax =   4.33680868994202E-14  4.81470498494346E-01
 cg2d: Sum(rhs),rhsMax =  -1.07955311356989E-13  4.81337197550639E-01
 cg2d: Sum(rhs),rhsMax =  -1.40207290222349E-13  4.81201515244334E-01
 cg2d: Sum(rhs),rhsMax =  -1.54209978120434E-13  4.81063254990664E-01
 cg2d: Sum(rhs),rhsMax =  -2.65315547309797E-13  4.80922265686971E-01
 cg2d: Sum(rhs),rhsMax =  -1.16129328375791E-13  4.80778427722283E-01
 cg2d: Sum(rhs),rhsMax =  -1.57596158345541E-13  4.80631661173467E-01
 cg2d: Sum(rhs),rhsMax =  -3.73034936274053E-14  4.80481941539480E-01
 cg2d: Sum(rhs),rhsMax =  -3.20313220392165E-13  4.80329187835361E-01
 cg2d: Sum(rhs),rhsMax =  -1.08912878715728E-13  4.80173461773259E-01
 cg2d: Sum(rhs),rhsMax =  -8.33361157859258E-14  4.80014799946465E-01
 cg2d: Sum(rhs),rhsMax =  -3.31540350728687E-14  4.79853299784347E-01
 cg2d: Sum(rhs),rhsMax =  -4.09949851842839E-14  4.79689107972625E-01
 cg2d: Sum(rhs),rhsMax =   1.63979940737136E-13  4.79521333228375E-01
 cg2d: Sum(rhs),rhsMax =  -8.72635297355373E-14  4.79349143535184E-01
 cg2d: Sum(rhs),rhsMax =   1.59872115546023E-14  4.79172888389726E-01
 cg2d: Sum(rhs),rhsMax =  -2.24223417610858E-13  4.78992960991579E-01
 cg2d: Sum(rhs),rhsMax =  -1.11452513884558E-13  4.78809810651730E-01
 cg2d: Sum(rhs),rhsMax =   1.54876111935209E-14  4.78624041986951E-01
 cg2d: Sum(rhs),rhsMax =  -1.29521393610332E-13  4.78436376208811E-01
 cg2d: Sum(rhs),rhsMax =  -6.93334278878410E-14  4.78247212850875E-01
 cg2d: Sum(rhs),rhsMax =   1.79828374413660E-13  4.78056948699144E-01
 cg2d: Sum(rhs),rhsMax =   1.62259095048967E-13  4.77866054884735E-01
 cg2d: Sum(rhs),rhsMax =  -1.77524661637563E-13  4.77674910448941E-01
 cg2d: Sum(rhs),rhsMax =  -1.68740021955216E-13  4.77483901482664E-01
 cg2d: Sum(rhs),rhsMax =   1.14075415780235E-13  4.77293388776824E-01
 cg2d: Sum(rhs),rhsMax =  -6.36990460378684E-15  4.77103999036167E-01
 cg2d: Sum(rhs),rhsMax =   1.52183821100493E-13  4.76916008874366E-01
 cg2d: Sum(rhs),rhsMax =   2.02962646689286E-13  4.76729618163462E-01
 cg2d: Sum(rhs),rhsMax =   2.45803377652010E-13  4.76544951493985E-01
 cg2d: Sum(rhs),rhsMax =   2.30371277609720E-14  4.76362030288938E-01
 cg2d: Sum(rhs),rhsMax =   1.76969550125250E-13  4.76180811354623E-01
 cg2d: Sum(rhs),rhsMax =  -1.44190215323192E-14  4.75999065871763E-01
 cg2d: Sum(rhs),rhsMax =  -9.70057367766231E-14  4.75816656018528E-01
 cg2d: Sum(rhs),rhsMax =   9.41885458516367E-14  4.75633383154641E-01
 cg2d: Sum(rhs),rhsMax =  -2.30551688851222E-13  4.75449075660168E-01
 cg2d: Sum(rhs),rhsMax =   2.63136734623970E-13  4.75263522029725E-01
 cg2d: Sum(rhs),rhsMax =   2.40613085011887E-13  4.75076545452459E-01
 cg2d: Sum(rhs),rhsMax =  -2.75446332409501E-13  4.74888025938520E-01
 cg2d: Sum(rhs),rhsMax =   1.25510712933874E-13  4.74697856237018E-01
 cg2d: Sum(rhs),rhsMax =  -1.44856349137967E-13  4.74505956469250E-01
 cg2d: Sum(rhs),rhsMax =  -4.39370761995406E-14  4.74312275126171E-01
 cg2d: Sum(rhs),rhsMax =   9.90318937965640E-14  4.74116800355472E-01
 cg2d: Sum(rhs),rhsMax =   1.41733846881209E-13  4.73919562872238E-01
 cg2d: Sum(rhs),rhsMax =  -6.16867668057353E-14  4.73720620964101E-01
 cg2d: Sum(rhs),rhsMax =  -1.51753609678451E-13  4.73520066828895E-01
 cg2d: Sum(rhs),rhsMax =  -1.41178735368896E-13  4.73317822313344E-01
 cg2d: Sum(rhs),rhsMax =  -2.08333350570911E-13  4.73114131505511E-01
 cg2d: Sum(rhs),rhsMax =   1.56930024530766E-13  4.72909164526678E-01
 cg2d: Sum(rhs),rhsMax =  -2.96984659087229E-14  4.72700929071328E-01
 cg2d: Sum(rhs),rhsMax =   7.82707232360735E-14  4.72491778920568E-01
 cg2d: Sum(rhs),rhsMax =  -5.34294830600857E-14  4.72280082620819E-01
 cg2d: Sum(rhs),rhsMax =   6.41570130355262E-14  4.72066107945203E-01
 cg2d: Sum(rhs),rhsMax =  -3.18967074974807E-13  4.71850242301203E-01
 cg2d: Sum(rhs),rhsMax =   2.70033995164454E-13  4.71632911571717E-01
 cg2d: Sum(rhs),rhsMax =  -2.63955524104631E-13  4.71414611597057E-01
 cg2d: Sum(rhs),rhsMax =  -1.83672521636424E-13  4.71195822124760E-01
 cg2d: Sum(rhs),rhsMax =  -2.39031017201796E-13  4.70977228107105E-01
 cg2d: Sum(rhs),rhsMax =   3.46098150139085E-13  4.70759413406177E-01
 cg2d: Sum(rhs),rhsMax =   1.02945429958368E-13  4.70542795538129E-01
 cg2d: Sum(rhs),rhsMax =   4.14113188185183E-14  4.70327682286890E-01
 cg2d: Sum(rhs),rhsMax =   3.95627974825175E-13  4.70114399334392E-01
 cg2d: Sum(rhs),rhsMax =   3.09252623509337E-13  4.69903315181163E-01
 cg2d: Sum(rhs),rhsMax =   9.08439989899534E-14  4.69694687234409E-01
 cg2d: Sum(rhs),rhsMax =   1.92609816984657E-13  4.69489094927617E-01
 cg2d: Sum(rhs),rhsMax =  -1.25829902053454E-13  4.69286798866475E-01
 cg2d: Sum(rhs),rhsMax =  -2.15244488899202E-13  4.69087970194754E-01
 cg2d: Sum(rhs),rhsMax =   9.50628464835290E-14  4.68892723063074E-01
 cg2d: Sum(rhs),rhsMax =  -1.22193921647806E-13  4.68700958331623E-01
 cg2d: Sum(rhs),rhsMax =  -2.03573269352830E-13  4.68512655538047E-01
 cg2d: Sum(rhs),rhsMax =  -1.14117049143658E-13  4.68327603419843E-01
 cg2d: Sum(rhs),rhsMax =   1.35724764760425E-14  4.68143869899289E-01
 cg2d: Sum(rhs),rhsMax =  -5.26800825184637E-14  4.67960821458505E-01
 cg2d: Sum(rhs),rhsMax =   1.25829902053454E-13  4.67778201556409E-01
 cg2d: Sum(rhs),rhsMax =   1.55611634689024E-13  4.67595781311965E-01
 cg2d: Sum(rhs),rhsMax =  -8.80545636405827E-14  4.67413285696338E-01
 cg2d: Sum(rhs),rhsMax =   4.83502127224256E-14  4.67230460250745E-01
 cg2d: Sum(rhs),rhsMax =   1.76594849854439E-13  4.67047074282403E-01
 cg2d: Sum(rhs),rhsMax =  -7.98805466217800E-14  4.66863150341931E-01
 cg2d: Sum(rhs),rhsMax =   9.70473701400465E-14  4.66678242553920E-01
 cg2d: Sum(rhs),rhsMax =   2.54976595392975E-13  4.66492155595937E-01
 cg2d: Sum(rhs),rhsMax =   2.78291278910103E-13  4.66304740255008E-01
 cg2d: Sum(rhs),rhsMax =   2.74683054080072E-13  4.66115980133906E-01
 cg2d: Sum(rhs),rhsMax =   1.31492039479042E-13  4.65925316053281E-01
 cg2d: Sum(rhs),rhsMax =  -6.50451914552264E-14  4.65733003530560E-01
 cg2d: Sum(rhs),rhsMax =  -5.55944179581047E-14  4.65539016459927E-01
 cg2d: Sum(rhs),rhsMax =  -1.51947898707760E-13  4.65343341722672E-01
 cg2d: Sum(rhs),rhsMax =   9.71445146547012E-16  4.65145954292117E-01
 cg2d: Sum(rhs),rhsMax =   4.58105775535955E-14  4.64944863733438E-01
 cg2d: Sum(rhs),rhsMax =  -8.54594173205214E-14  4.64739913513467E-01
 cg2d: Sum(rhs),rhsMax =   1.72001302090052E-13  4.64531208917369E-01
 cg2d: Sum(rhs),rhsMax =   2.84772205816353E-14  4.64318919542478E-01
 cg2d: Sum(rhs),rhsMax =   8.49320613838245E-14  4.64103283659758E-01
 cg2d: Sum(rhs),rhsMax =  -1.02556851899749E-14  4.63884598428605E-01
 cg2d: Sum(rhs),rhsMax =  -2.47343812098677E-13  4.63663207566381E-01
 cg2d: Sum(rhs),rhsMax =   1.94289029309402E-13  4.63439443146688E-01
 cg2d: Sum(rhs),rhsMax =   4.85445017517350E-14  4.63213716665377E-01
 cg2d: Sum(rhs),rhsMax =  -7.36494198960713E-14  4.62986487289412E-01
 cg2d: Sum(rhs),rhsMax =   7.74519337554125E-14  4.62758189775480E-01
 cg2d: Sum(rhs),rhsMax =  -1.71709868546088E-13  4.62529290413686E-01
 cg2d: Sum(rhs),rhsMax =   1.44217970898808E-13  4.62300212329250E-01
 cg2d: Sum(rhs),rhsMax =   5.51225731726390E-14  4.62071373400068E-01
 cg2d: Sum(rhs),rhsMax =  -1.25593979660721E-14  4.61843096454542E-01
 cg2d: Sum(rhs),rhsMax =  -6.53921361504217E-14  4.61615686666253E-01
 cg2d: Sum(rhs),rhsMax =  -1.26620935958499E-13  4.61389419633041E-01
 cg2d: Sum(rhs),rhsMax =  -1.94427807187481E-14  4.61164508077819E-01
 cg2d: Sum(rhs),rhsMax =   7.28722637788337E-14  4.60941074157468E-01
 cg2d: Sum(rhs),rhsMax =   2.99066327258402E-14  4.60719208523440E-01
 cg2d: Sum(rhs),rhsMax =   1.96037630573187E-13  4.60498927200087E-01
 cg2d: Sum(rhs),rhsMax =  -3.54716256367738E-14  4.60280166528107E-01
 cg2d: Sum(rhs),rhsMax =   1.02778896504674E-13  4.60061308069198E-01
 cg2d: Sum(rhs),rhsMax =  -2.12246886732714E-13  4.59841909625485E-01
 cg2d: Sum(rhs),rhsMax =  -5.71626079803877E-14  4.59621981853350E-01
 cg2d: Sum(rhs),rhsMax =  -9.65338919911574E-14  4.59401543354235E-01
 cg2d: Sum(rhs),rhsMax =  -2.26207941267376E-15  4.59181093289175E-01
 cg2d: Sum(rhs),rhsMax =  -8.65418847695310E-14  4.58959492362666E-01
 cg2d: Sum(rhs),rhsMax =  -4.57273108267486E-14  4.58737714696359E-01
 cg2d: Sum(rhs),rhsMax =   2.73392419813945E-15  4.58514173283236E-01
 cg2d: Sum(rhs),rhsMax =  -4.27435864480685E-15  4.58285736426407E-01
 cg2d: Sum(rhs),rhsMax =  -2.20601314993019E-13  4.58055581468899E-01
 cg2d: Sum(rhs),rhsMax =  -8.37940827835837E-14  4.57825797405906E-01
 cg2d: Sum(rhs),rhsMax =  -7.49955653134293E-14  4.57596503574214E-01
 cg2d: Sum(rhs),rhsMax =  -3.36258798583344E-13  4.57367879885682E-01
 cg2d: Sum(rhs),rhsMax =   7.14706072102445E-14  4.57139852385675E-01
 cg2d: Sum(rhs),rhsMax =   2.65204525007334E-13  4.56912576947806E-01
 cg2d: Sum(rhs),rhsMax =   1.60607638299837E-13  4.56684134020121E-01
 cg2d: Sum(rhs),rhsMax =  -9.42301792150602E-15  4.56454461146382E-01
 cg2d: Sum(rhs),rhsMax =   1.44120826384153E-13  4.56223670150747E-01
 cg2d: Sum(rhs),rhsMax =   4.38538094726937E-14  4.55991906596068E-01
 cg2d: Sum(rhs),rhsMax =  -1.09870446074467E-13  4.55759398005416E-01
 cg2d: Sum(rhs),rhsMax =  -1.01918473660589E-13  4.55526274404952E-01
 cg2d: Sum(rhs),rhsMax =  -2.84064438638154E-13  4.55292640241066E-01
 cg2d: Sum(rhs),rhsMax =  -1.69309011255336E-13  4.55058575224101E-01
 cg2d: Sum(rhs),rhsMax =  -5.19029264012261E-14  4.54824585550599E-01
 cg2d: Sum(rhs),rhsMax =  -5.58580959264532E-14  4.54590942613386E-01
 cg2d: Sum(rhs),rhsMax =   4.87665463566600E-14  4.54357958500659E-01
 cg2d: Sum(rhs),rhsMax =  -2.21517248988334E-13  4.54125947361907E-01
 cg2d: Sum(rhs),rhsMax =  -2.35783614854768E-13  4.53895201414211E-01
 cg2d: Sum(rhs),rhsMax =   1.25593979660721E-14  4.53665976867990E-01
 cg2d: Sum(rhs),rhsMax =   2.95638513669871E-13  4.53438487231119E-01
 cg2d: Sum(rhs),rhsMax =   9.74637037742809E-14  4.53212715603527E-01
 cg2d: Sum(rhs),rhsMax =  -3.13082892944294E-14  4.52988650561835E-01
 cg2d: Sum(rhs),rhsMax =   1.87252990890840E-13  4.52766368582769E-01
 cg2d: Sum(rhs),rhsMax =   5.20139487036886E-14  4.52545891175205E-01
 cg2d: Sum(rhs),rhsMax =   2.49245069028348E-14  4.52327200937999E-01
 cg2d: Sum(rhs),rhsMax =   1.90708560054986E-13  4.52110224966048E-01
 cg2d: Sum(rhs),rhsMax =   3.50969253659628E-14  4.51894832520089E-01
 cg2d: Sum(rhs),rhsMax =  -3.05852565496423E-13  4.51680834956411E-01
 cg2d: Sum(rhs),rhsMax =   9.58122470251510E-14  4.51468047080695E-01
 cg2d: Sum(rhs),rhsMax =  -5.69405633754627E-14  4.51255329671075E-01
 cg2d: Sum(rhs),rhsMax =   1.24900090270330E-14  4.51041481799808E-01
 cg2d: Sum(rhs),rhsMax =  -2.86853873987525E-14  4.50874503844661E-01
 cg2d: Sum(rhs),rhsMax =  -1.90542026601292E-14  4.50783651713080E-01
 cg2d: Sum(rhs),rhsMax =  -4.08742484303559E-13  4.50693761540445E-01
 cg2d: Sum(rhs),rhsMax =  -7.88813458996174E-14  4.50604721216146E-01
 cg2d: Sum(rhs),rhsMax =   8.36553049055055E-14  4.50516390417173E-01
 cg2d: Sum(rhs),rhsMax =  -1.13520304267922E-13  4.50428606346785E-01
 cg2d: Sum(rhs),rhsMax =  -2.24403828852360E-14  4.50341204553191E-01
 cg2d: Sum(rhs),rhsMax =  -1.27731158983124E-13  4.50254975476158E-01
 cg2d: Sum(rhs),rhsMax =  -1.90000792876788E-13  4.50168775785959E-01
 cg2d: Sum(rhs),rhsMax =  -4.27061164209874E-13  4.50082378840439E-01
 cg2d: Sum(rhs),rhsMax =  -1.85740312019789E-13  4.49995548968413E-01
 cg2d: Sum(rhs),rhsMax =   3.27654570142499E-14  4.49908040605871E-01
 cg2d: Sum(rhs),rhsMax =   2.23390750342389E-13  4.49819633843596E-01
 cg2d: Sum(rhs),rhsMax =   1.95704563665799E-13  4.49730104404721E-01
 cg2d: Sum(rhs),rhsMax =   3.86343734781747E-13  4.49639264561762E-01
 cg2d: Sum(rhs),rhsMax =   1.55042645388903E-13  4.49546939068120E-01
 cg2d: Sum(rhs),rhsMax =   4.08700850940136E-14  4.49452986949803E-01
 cg2d: Sum(rhs),rhsMax =  -7.13873404833976E-14  4.49357182412991E-01
 cg2d: Sum(rhs),rhsMax =  -2.07597827817096E-13  4.49259445732501E-01
 cg2d: Sum(rhs),rhsMax =  -8.67361737988404E-14  4.49159712446634E-01
 cg2d: Sum(rhs),rhsMax =   1.32588384715859E-13  4.49058507298994E-01
 cg2d: Sum(rhs),rhsMax =   5.89805981832114E-14  4.48955296429973E-01
 cg2d: Sum(rhs),rhsMax =   6.68493038702422E-14  4.48850113454693E-01
 cg2d: Sum(rhs),rhsMax =   7.33441085642994E-14  4.48743075047618E-01
 cg2d: Sum(rhs),rhsMax =  -7.76739783603375E-14  4.48634298563436E-01
 cg2d: Sum(rhs),rhsMax =   2.42389441851287E-13  4.48523934262528E-01
 cg2d: Sum(rhs),rhsMax =  -4.60048665829049E-14  4.48412231014914E-01
 cg2d: Sum(rhs),rhsMax =  -2.06792916124243E-13  4.48299468463504E-01
 cg2d: Sum(rhs),rhsMax =   2.40765740677773E-13  4.48185950252757E-01
 cg2d: Sum(rhs),rhsMax =  -3.85066978303428E-13  4.48072185307279E-01
 cg2d: Sum(rhs),rhsMax =   1.80577774955282E-13  4.47958202981986E-01
 cg2d: Sum(rhs),rhsMax =   1.90389370935407E-13  4.47844091621478E-01
 cg2d: Sum(rhs),rhsMax =   2.92946222835155E-13  4.47730262714285E-01
 cg2d: Sum(rhs),rhsMax =   6.25194340742041E-14  4.47616926758693E-01
 cg2d: Sum(rhs),rhsMax =   1.78621006874380E-13  4.47504333333745E-01
 cg2d: Sum(rhs),rhsMax =  -1.81368808860327E-13  4.47392648805431E-01
 cg2d: Sum(rhs),rhsMax =  -2.58057464286310E-13  4.47282062875856E-01
 cg2d: Sum(rhs),rhsMax =  -1.13326015238613E-13  4.47172707599938E-01
 cg2d: Sum(rhs),rhsMax =   2.76861866765898E-14  4.47064620627960E-01
 cg2d: Sum(rhs),rhsMax =   1.25732757538799E-14  4.46957896104687E-01
 cg2d: Sum(rhs),rhsMax =   2.52131648892373E-13  4.46852614214308E-01
 cg2d: Sum(rhs),rhsMax =  -2.51257348260481E-13  4.46748790871749E-01
 cg2d: Sum(rhs),rhsMax =   4.30350199920326E-14  4.46646435316026E-01
 cg2d: Sum(rhs),rhsMax =  -1.38916655956223E-14  4.46545546427973E-01
 cg2d: Sum(rhs),rhsMax =   2.71144218189079E-13  4.46446075688929E-01
 cg2d: Sum(rhs),rhsMax =   2.93404189832813E-13  4.46347922314473E-01
 cg2d: Sum(rhs),rhsMax =  -2.00672811700997E-14  4.46250956409418E-01
 cg2d: Sum(rhs),rhsMax =   2.03753680594332E-13  4.46155021468153E-01
 cg2d: Sum(rhs),rhsMax =  -2.47121767493752E-13  4.46060350057814E-01
 cg2d: Sum(rhs),rhsMax =   2.51035303655556E-13  4.45966351280503E-01
 cg2d: Sum(rhs),rhsMax =  -1.03056452260830E-13  4.45872857067075E-01
 cg2d: Sum(rhs),rhsMax =   7.04852842758896E-14  4.45779682499838E-01
 cg2d: Sum(rhs),rhsMax =  -3.04478664503449E-14  4.45686706563136E-01
 cg2d: Sum(rhs),rhsMax =   1.30728761149612E-13  4.45593707018734E-01
 cg2d: Sum(rhs),rhsMax =  -1.81257786557865E-13  4.45500579347115E-01
 cg2d: Sum(rhs),rhsMax =   1.72334368997440E-13  4.45453052257652E-01
 cg2d: Sum(rhs),rhsMax =   1.61537450082960E-13  4.45488952371904E-01
 cg2d: Sum(rhs),rhsMax =   3.78905240516758E-13  4.45526715544119E-01
 cg2d: Sum(rhs),rhsMax =   2.59445243067091E-13  4.45565908727418E-01
 cg2d: Sum(rhs),rhsMax =  -1.87863613554384E-13  4.45606064435040E-01
 cg2d: Sum(rhs),rhsMax =   1.27564625529430E-13  4.45646691372280E-01
 cg2d: Sum(rhs),rhsMax =   4.05522837532146E-13  4.45687287163737E-01
 cg2d: Sum(rhs),rhsMax =   2.60208521396521E-14  4.45727362163581E-01
 cg2d: Sum(rhs),rhsMax =  -9.42856903662914E-14  4.45766385062242E-01
 cg2d: Sum(rhs),rhsMax =   9.48685574542196E-14  4.45803895082419E-01
 cg2d: Sum(rhs),rhsMax =   2.41112685372968E-13  4.45839419537129E-01
 cg2d: Sum(rhs),rhsMax =   1.43357548054723E-13  4.45872532657361E-01
 cg2d: Sum(rhs),rhsMax =  -5.81895642781660E-14  4.45902833665160E-01
 cg2d: Sum(rhs),rhsMax =   4.21565560237980E-13  4.45930054289264E-01
 cg2d: Sum(rhs),rhsMax =  -5.64548408021892E-14  4.45953915195890E-01
 cg2d: Sum(rhs),rhsMax =   2.53949639095197E-13  4.45974504385002E-01
 cg2d: Sum(rhs),rhsMax =   2.53144727402344E-13  4.45991759703992E-01
 cg2d: Sum(rhs),rhsMax =  -1.05582209641852E-13  4.46005592067282E-01
 cg2d: Sum(rhs),rhsMax =  -1.48214773787458E-13  4.46015959812228E-01
 cg2d: Sum(rhs),rhsMax =   5.26106935794246E-14  4.46022880366247E-01
 cg2d: Sum(rhs),rhsMax =  -9.90874049477952E-14  4.46026421123356E-01
 cg2d: Sum(rhs),rhsMax =   3.42642580974939E-14  4.46026679297498E-01
 cg2d: Sum(rhs),rhsMax =   3.85941278935320E-14  4.46023843448716E-01
 cg2d: Sum(rhs),rhsMax =   5.72042413438112E-14  4.46018138985758E-01
 cg2d: Sum(rhs),rhsMax =  -2.79026801663917E-13  4.46009834588751E-01
 cg2d: Sum(rhs),rhsMax =   2.28692065284974E-13  4.45999423483400E-01
 cg2d: Sum(rhs),rhsMax =  -1.39332989590457E-13  4.45987132541582E-01
 cg2d: Sum(rhs),rhsMax =  -7.17204073907851E-14  4.45973248244106E-01
 cg2d: Sum(rhs),rhsMax =   1.80244708047894E-13  4.45958211589522E-01
 cg2d: Sum(rhs),rhsMax =  -5.80091530366644E-14  4.45942432885460E-01
 cg2d: Sum(rhs),rhsMax =   1.61259894326804E-14  4.45926331975216E-01
 cg2d: Sum(rhs),rhsMax =   9.85184156476748E-14  4.45910311902089E-01
 cg2d: Sum(rhs),rhsMax =   2.52853293858379E-14  4.45894758154686E-01
 cg2d: Sum(rhs),rhsMax =  -1.40359945888235E-13  4.45880057063534E-01
 cg2d: Sum(rhs),rhsMax =   1.65575886335034E-13  4.45866681265500E-01
 cg2d: Sum(rhs),rhsMax =   1.25940924355916E-13  4.45855300605870E-01
 cg2d: Sum(rhs),rhsMax =   5.23053822476527E-14  4.45846172022716E-01
 cg2d: Sum(rhs),rhsMax =   1.87350135405495E-13  4.45839504540200E-01
 cg2d: Sum(rhs),rhsMax =   2.85174661662779E-13  4.45835450046712E-01
 cg2d: Sum(rhs),rhsMax =  -1.30576105483726E-13  4.45834038138417E-01
 cg2d: Sum(rhs),rhsMax =   3.94184684893162E-13  4.45835293379459E-01
 cg2d: Sum(rhs),rhsMax =  -1.60621516087645E-13  4.45839189755980E-01
 cg2d: Sum(rhs),rhsMax =   8.45712389008213E-14  4.45845653378721E-01
 cg2d: Sum(rhs),rhsMax =  -2.65718003156223E-13  4.45854536392734E-01
 cg2d: Sum(rhs),rhsMax =  -2.25347518423291E-13  4.45865658071645E-01
 cg2d: Sum(rhs),rhsMax =  -3.29888893979557E-13  4.45878795995283E-01
 cg2d: Sum(rhs),rhsMax =   7.02493618831568E-14  4.45893667242020E-01
 cg2d: Sum(rhs),rhsMax =  -2.50674481172553E-13  4.45909976956396E-01
 cg2d: Sum(rhs),rhsMax =   1.07927555781373E-13  4.45927407347994E-01
 cg2d: Sum(rhs),rhsMax =  -2.13010165062144E-13  4.45945570967709E-01
 cg2d: Sum(rhs),rhsMax =   1.07275299754406E-13  4.45963761436029E-01
 cg2d: Sum(rhs),rhsMax =  -9.96008830966844E-14  4.45982307294995E-01
 cg2d: Sum(rhs),rhsMax =   1.70266578614076E-13  4.46000543188776E-01
 cg2d: Sum(rhs),rhsMax =   3.18786663733306E-13  4.46018160971613E-01
 cg2d: Sum(rhs),rhsMax =   1.45092271530700E-13  4.46035276947049E-01
 cg2d: Sum(rhs),rhsMax =  -1.02140518265514E-14  4.46051572331918E-01
 cg2d: Sum(rhs),rhsMax =   5.52197176872937E-14  4.46066750902436E-01
 cg2d: Sum(rhs),rhsMax =  -1.44342870989078E-13  4.46080561270710E-01
 cg2d: Sum(rhs),rhsMax =  -1.05457309551582E-13  4.46092763565303E-01
 cg2d: Sum(rhs),rhsMax =  -1.75207071073658E-13  4.46103159839215E-01
 cg2d: Sum(rhs),rhsMax =  -2.63261634714240E-14  4.46111588194660E-01
 cg2d: Sum(rhs),rhsMax =   4.53526105559376E-14  4.46117917263414E-01
 cg2d: Sum(rhs),rhsMax =   8.07687250414801E-14  4.46122065398331E-01
 cg2d: Sum(rhs),rhsMax =  -8.13238365537927E-14  4.46123990933470E-01
 cg2d: Sum(rhs),rhsMax =   3.53175821921070E-13  4.46123696605606E-01
 cg2d: Sum(rhs),rhsMax =  -2.22946661132539E-13  4.46121221163879E-01
 cg2d: Sum(rhs),rhsMax =   1.07081010725096E-13  4.46116652017077E-01
 cg2d: Sum(rhs),rhsMax =   4.80449013906536E-14  4.46110088535022E-01
 cg2d: Sum(rhs),rhsMax =  -1.92179605562615E-13  4.46101692065568E-01
 cg2d: Sum(rhs),rhsMax =   6.38766817218084E-13  4.46091640115589E-01
 cg2d: Sum(rhs),rhsMax =   2.09970929532233E-14  4.46080162664793E-01
 cg2d: Sum(rhs),rhsMax =   7.72992780895265E-14  4.46067472973283E-01
 cg2d: Sum(rhs),rhsMax =   1.51392787195448E-13  4.46053844253860E-01
 cg2d: Sum(rhs),rhsMax =  -2.29607999280290E-13  4.46039534128769E-01
 cg2d: Sum(rhs),rhsMax =  -2.20462537114940E-13  4.46024846112776E-01
 cg2d: Sum(rhs),rhsMax =   1.50532364351363E-13  4.46010504159027E-01
 cg2d: Sum(rhs),rhsMax =   1.06956110634826E-13  4.45996755167031E-01
 cg2d: Sum(rhs),rhsMax =  -6.55725473919233E-14  4.45983835692418E-01
 cg2d: Sum(rhs),rhsMax =   5.45952172359421E-14  4.45971939527596E-01
 cg2d: Sum(rhs),rhsMax =  -3.77961550945827E-13  4.45961262358107E-01
 cg2d: Sum(rhs),rhsMax =  -1.39055433834301E-14  4.45952011870980E-01
 cg2d: Sum(rhs),rhsMax =   8.95117313604032E-15  4.45944332209201E-01
 cg2d: Sum(rhs),rhsMax =  -1.39083189409916E-13  4.45938439384025E-01
 cg2d: Sum(rhs),rhsMax =   1.02931552170560E-13  4.45934376459972E-01
 cg2d: Sum(rhs),rhsMax =  -1.27550747741623E-13  4.45932219176017E-01
 cg2d: Sum(rhs),rhsMax =  -1.51267887105178E-13  4.45932042130578E-01
 cg2d: Sum(rhs),rhsMax =   4.17041401412632E-13  4.45933788690122E-01
 cg2d: Sum(rhs),rhsMax =  -1.13797860024079E-15  4.45937472647052E-01
 cg2d: Sum(rhs),rhsMax =   2.25500174089177E-13  4.45943090478390E-01
 cg2d: Sum(rhs),rhsMax =   3.78447273519100E-14  4.45950597913370E-01
 cg2d: Sum(rhs),rhsMax =  -4.95908869524442E-13  4.45959938935228E-01
 cg2d: Sum(rhs),rhsMax =  -3.00801050734378E-13  4.45971025526972E-01
 cg2d: Sum(rhs),rhsMax =   1.09467990228040E-13  4.45983910443369E-01
 cg2d: Sum(rhs),rhsMax =  -2.75432454621694E-13  4.45994295636720E-01
 cg2d: Sum(rhs),rhsMax =   4.01789712611844E-13  4.46006453736625E-01
 cg2d: Sum(rhs),rhsMax =   5.37903055430888E-14  4.46020411912422E-01
 cg2d: Sum(rhs),rhsMax =   1.39513400831959E-13  4.46035982992666E-01
 cg2d: Sum(rhs),rhsMax =  -1.05138120432002E-13  4.46052952846711E-01
 cg2d: Sum(rhs),rhsMax =   1.20070620113211E-13  4.46071151216573E-01
 cg2d: Sum(rhs),rhsMax =  -1.57110435772267E-13  4.46090368046148E-01
 cg2d: Sum(rhs),rhsMax =   6.27040086520481E-13  4.46110379877474E-01
 cg2d: Sum(rhs),rhsMax =   6.34214902817121E-15  4.46130963533207E-01
 cg2d: Sum(rhs),rhsMax =  -1.63355440285784E-13  4.46151891935759E-01
 cg2d: Sum(rhs),rhsMax =   1.43357548054723E-14  4.46172919537527E-01
 cg2d: Sum(rhs),rhsMax =  -2.79498646449383E-13  4.46193806763152E-01
 cg2d: Sum(rhs),rhsMax =  -2.12288520096138E-13  4.46214318892109E-01
 cg2d: Sum(rhs),rhsMax =   3.36466965400462E-13  4.46234194708051E-01
 cg2d: Sum(rhs),rhsMax =   6.57279786153708E-13  4.46253235239809E-01
 cg2d: Sum(rhs),rhsMax =   3.84692278032617E-14  4.46434095598583E-01
 cg2d: Sum(rhs),rhsMax =  -3.03507219356902E-13  4.46778225803880E-01
 cg2d: Sum(rhs),rhsMax =   1.20292664718136E-13  4.47116927561280E-01
 cg2d: Sum(rhs),rhsMax =  -1.33920652345410E-13  4.47450111388392E-01
 cg2d: Sum(rhs),rhsMax =  -6.53643805748061E-14  4.47777757623641E-01
 cg2d: Sum(rhs),rhsMax =  -2.92960100622963E-14  4.48099856236661E-01
 cg2d: Sum(rhs),rhsMax =   2.31800689753925E-13  4.48416498744439E-01
 cg2d: Sum(rhs),rhsMax =  -1.22957199977236E-14  4.48727805366073E-01
 cg2d: Sum(rhs),rhsMax =   1.58068003131007E-13  4.49033950145797E-01
 cg2d: Sum(rhs),rhsMax =  -3.22936122287842E-13  4.49335102663445E-01
 cg2d: Sum(rhs),rhsMax =   1.50573997714787E-14  4.49631523739138E-01
 cg2d: Sum(rhs),rhsMax =  -6.14785999886180E-14  4.49923360727089E-01
 cg2d: Sum(rhs),rhsMax =   2.89351875792931E-14  4.50211059039314E-01
 cg2d: Sum(rhs),rhsMax =  -8.59451398937949E-14  4.50494931628549E-01
 cg2d: Sum(rhs),rhsMax =  -2.45220510564081E-14  4.50775327846882E-01
 cg2d: Sum(rhs),rhsMax =  -1.87100335224955E-13  4.51052609463834E-01
 cg2d: Sum(rhs),rhsMax =  -2.64455124465712E-13  4.51321819478596E-01
 cg2d: Sum(rhs),rhsMax =   1.98743799195711E-13  4.51588858593701E-01
 cg2d: Sum(rhs),rhsMax =   1.06414876910321E-13  4.51854097746140E-01
 cg2d: Sum(rhs),rhsMax =  -2.07611705604904E-14  4.52117437466104E-01
 cg2d: Sum(rhs),rhsMax =   2.72143418911241E-14  4.52379735311855E-01
 cg2d: Sum(rhs),rhsMax =  -2.26416108084493E-13  4.52641387158950E-01
 cg2d: Sum(rhs),rhsMax =  -3.01550451276000E-13  4.52902481294181E-01
 cg2d: Sum(rhs),rhsMax =   1.33518196498983E-13  4.53164607359634E-01
 cg2d: Sum(rhs),rhsMax =  -2.70408695435265E-13  4.53426250277516E-01
 cg2d: Sum(rhs),rhsMax =  -9.83657599817889E-14  4.53691097724812E-01
 cg2d: Sum(rhs),rhsMax =  -1.18280385486003E-13  4.53956124979427E-01
 cg2d: Sum(rhs),rhsMax =   5.60662627435704E-15  4.54223535350097E-01
 cg2d: Sum(rhs),rhsMax =   8.00193244998582E-14  4.54491277475352E-01
 cg2d: Sum(rhs),rhsMax =  -5.89528426075958E-14  4.54761001558636E-01
 cg2d: Sum(rhs),rhsMax =  -9.12742104119957E-14  4.55031396781557E-01
 cg2d: Sum(rhs),rhsMax =  -3.03229663600746E-14  4.55302991145170E-01
 cg2d: Sum(rhs),rhsMax =   7.77017339359531E-14  4.55575711874283E-01
 cg2d: Sum(rhs),rhsMax =  -3.04714586896182E-13  4.55849406006179E-01
 cg2d: Sum(rhs),rhsMax =   1.82048820462910E-13  4.56123978910262E-01
 cg2d: Sum(rhs),rhsMax =  -1.40193412434542E-13  4.56399294057838E-01
 cg2d: Sum(rhs),rhsMax =   8.60422844084496E-14  4.56675256001756E-01
 cg2d: Sum(rhs),rhsMax =   1.01252339845814E-13  4.56951725783053E-01
 cg2d: Sum(rhs),rhsMax =  -7.70217223333702E-14  4.57228584254172E-01
 cg2d: Sum(rhs),rhsMax =  -2.12052597703405E-13  4.57505723652371E-01
 cg2d: Sum(rhs),rhsMax =  -6.32133234645949E-14  4.57782959870871E-01
 cg2d: Sum(rhs),rhsMax =   7.95336019265847E-14  4.58060110476142E-01
 cg2d: Sum(rhs),rhsMax =  -2.92030288839840E-13  4.58336803617816E-01
 cg2d: Sum(rhs),rhsMax =  -8.19483370051444E-14  4.58613042392348E-01
 cg2d: Sum(rhs),rhsMax =  -1.69322889043144E-13  4.58888451762297E-01
 cg2d: Sum(rhs),rhsMax =   6.54754028772686E-14  4.59162589196615E-01
 cg2d: Sum(rhs),rhsMax =   9.47297795761415E-14  4.59435187389170E-01
 cg2d: Sum(rhs),rhsMax =  -1.94899651972946E-13  4.59705989466157E-01
 cg2d: Sum(rhs),rhsMax =  -5.99381655419506E-14  4.59974740534715E-01
 cg2d: Sum(rhs),rhsMax =   2.72462608030821E-13  4.60241164649125E-01
 cg2d: Sum(rhs),rhsMax =   5.21666043695745E-14  4.60331733884217E-01
 cg2d: Sum(rhs),rhsMax =  -1.29035671037059E-13  4.60416531552514E-01
 cg2d: Sum(rhs),rhsMax =  -1.29979360607990E-13  4.60499936191586E-01
 cg2d: Sum(rhs),rhsMax =   1.54987134237672E-13  4.60580158672894E-01
 cg2d: Sum(rhs),rhsMax =   1.18002829729846E-13  4.60657232418482E-01
 cg2d: Sum(rhs),rhsMax =   2.29261054585095E-13  4.60731005298354E-01
 cg2d: Sum(rhs),rhsMax =   6.09928774153445E-14  4.60801310268678E-01
 cg2d: Sum(rhs),rhsMax =   4.72816230612239E-14  4.60867967217086E-01
 cg2d: Sum(rhs),rhsMax =  -9.11076769583019E-14  4.60930781900284E-01
 cg2d: Sum(rhs),rhsMax =   1.77635683940025E-13  4.60989806844718E-01
 cg2d: Sum(rhs),rhsMax =   3.38784555964367E-13  4.61044601960140E-01
 cg2d: Sum(rhs),rhsMax =  -6.87921941633363E-14  4.61094643899467E-01
 cg2d: Sum(rhs),rhsMax =   2.70616862252382E-15  4.61139962080775E-01
 cg2d: Sum(rhs),rhsMax =   1.73333569719603E-14  4.61180386722792E-01
 cg2d: Sum(rhs),rhsMax =   2.17728612916801E-13  4.61217176164055E-01
 cg2d: Sum(rhs),rhsMax =   4.39925873507718E-15  4.61250321669257E-01
 cg2d: Sum(rhs),rhsMax =  -7.62445662161326E-14  4.61283521399619E-01
 cg2d: Sum(rhs),rhsMax =   1.12396203455489E-13  4.61311694217745E-01
 cg2d: Sum(rhs),rhsMax =  -2.90864554663983E-13  4.61334301998840E-01
 cg2d: Sum(rhs),rhsMax =  -1.70960468004466E-13  4.61351510440936E-01
 cg2d: Sum(rhs),rhsMax =   1.40304434737004E-13  4.61363521971524E-01
 cg2d: Sum(rhs),rhsMax =  -1.59039448277554E-14  4.61370588403353E-01
 cg2d: Sum(rhs),rhsMax =   8.10324030098286E-14  4.61373046006886E-01
 cg2d: Sum(rhs),rhsMax =   2.21850315895722E-13  4.61371288751702E-01
 cg2d: Sum(rhs),rhsMax =  -4.15639744844043E-14  4.61365740092529E-01
 cg2d: Sum(rhs),rhsMax =   2.80608869474008E-14  4.61356656877106E-01
 cg2d: Sum(rhs),rhsMax =   4.83918460858490E-14  4.61344894769365E-01
 cg2d: Sum(rhs),rhsMax =  -3.24434923371086E-13  4.61330915405820E-01
 cg2d: Sum(rhs),rhsMax =   2.26485497023532E-14  4.61315553165303E-01
 cg2d: Sum(rhs),rhsMax =   1.51489931710103E-13  4.61299624789588E-01
 cg2d: Sum(rhs),rhsMax =   1.32630018079283E-13  4.61284008929377E-01
 cg2d: Sum(rhs),rhsMax =   1.38181133202409E-13  4.61269760625543E-01
 cg2d: Sum(rhs),rhsMax =   1.65284452791070E-13  4.61257007425786E-01
 cg2d: Sum(rhs),rhsMax =  -7.58421103697060E-14  4.61246874836625E-01
 cg2d: Sum(rhs),rhsMax =   8.88455975456282E-14  4.61239342174558E-01
 cg2d: Sum(rhs),rhsMax =  -2.10081951834695E-13  4.61234749003766E-01
 cg2d: Sum(rhs),rhsMax =   4.49917880729345E-14  4.61233169866209E-01
 cg2d: Sum(rhs),rhsMax =  -4.37289093824234E-14  4.61234272235342E-01
 cg2d: Sum(rhs),rhsMax =  -1.69031455499180E-14  4.61237749470332E-01
 cg2d: Sum(rhs),rhsMax =  -9.13158437754191E-15  4.61243802006289E-01
 cg2d: Sum(rhs),rhsMax =   3.73451269908287E-14  4.61252501972443E-01
 cg2d: Sum(rhs),rhsMax =   3.18772785945498E-13  4.61263844356509E-01
 cg2d: Sum(rhs),rhsMax =   1.25746635326607E-13  4.61277674710672E-01
 cg2d: Sum(rhs),rhsMax =  -1.88640769671622E-13  4.61293798859214E-01
 cg2d: Sum(rhs),rhsMax =  -8.82488526698921E-14  4.61311939564514E-01
 cg2d: Sum(rhs),rhsMax =   7.44543315889246E-14  4.61331705655920E-01
 cg2d: Sum(rhs),rhsMax =  -2.74780198594726E-14  4.61352677156707E-01
 cg2d: Sum(rhs),rhsMax =  -1.80119807957624E-13  4.61374307993300E-01
 cg2d: Sum(rhs),rhsMax =  -5.28743715477731E-14  4.61396056359363E-01
 cg2d: Sum(rhs),rhsMax =   8.46406278398604E-14  4.61417288497411E-01
 cg2d: Sum(rhs),rhsMax =  -7.43571870742699E-14  4.61437357909839E-01
 cg2d: Sum(rhs),rhsMax =  -4.04537514597791E-14  4.61455532896907E-01
 cg2d: Sum(rhs),rhsMax =  -1.08441033930262E-13  4.61471134506472E-01
 cg2d: Sum(rhs),rhsMax =   6.23112672570869E-15  4.61483158113028E-01
 cg2d: Sum(rhs),rhsMax =   6.05890337901371E-13  4.61491538891195E-01
 cg2d: Sum(rhs),rhsMax =  -2.62845301080006E-14  4.61495048308571E-01
 cg2d: Sum(rhs),rhsMax =   3.39311911901063E-14  4.61493322001455E-01
 cg2d: Sum(rhs),rhsMax =  -1.56763491077072E-13  4.61485876068530E-01
 cg2d: Sum(rhs),rhsMax =  -2.70047872952262E-13  4.61472306732636E-01
 cg2d: Sum(rhs),rhsMax =  -2.57155408078802E-14  4.61452276065160E-01
 cg2d: Sum(rhs),rhsMax =   2.11733408583825E-13  4.61425556559633E-01
 cg2d: Sum(rhs),rhsMax =   9.85322934354826E-15  4.61391974781722E-01
 cg2d: Sum(rhs),rhsMax =   1.04610764495305E-13  4.61351536888243E-01
 cg2d: Sum(rhs),rhsMax =  -1.72251102270593E-13  4.61305100842128E-01
 cg2d: Sum(rhs),rhsMax =   3.65818486613989E-14  4.61251953906278E-01
 cg2d: Sum(rhs),rhsMax =   1.56458179745300E-13  4.61193004312514E-01
 cg2d: Sum(rhs),rhsMax =  -2.03448369262560E-13  4.61128233805481E-01
 cg2d: Sum(rhs),rhsMax =  -1.75609526920084E-13  4.61057811187532E-01
 cg2d: Sum(rhs),rhsMax =  -1.01058050816505E-13  4.60982499793960E-01
 cg2d: Sum(rhs),rhsMax =   6.17561557447743E-14  4.60902894788934E-01
 cg2d: Sum(rhs),rhsMax =  -1.37417854872979E-13  4.60819604069441E-01
 cg2d: Sum(rhs),rhsMax =   5.26245713672324E-14  4.60733298575942E-01
 cg2d: Sum(rhs),rhsMax =   4.15723011570890E-13  4.60587978495106E-01
 cg2d: Sum(rhs),rhsMax =  -1.55847557081756E-14  4.60439987359182E-01
 cg2d: Sum(rhs),rhsMax =  -1.82076576038526E-13  4.60291498433263E-01
 cg2d: Sum(rhs),rhsMax =   5.64409630143814E-14  4.60142858360436E-01
 cg2d: Sum(rhs),rhsMax =   9.18987108633473E-14  4.59994803930457E-01
 cg2d: Sum(rhs),rhsMax =   4.58522109170190E-14  4.59848215854236E-01
 cg2d: Sum(rhs),rhsMax =  -3.78169717762944E-13  4.59703161916767E-01
 cg2d: Sum(rhs),rhsMax =  -1.21638810135494E-13  4.59548115173489E-01
 cg2d: Sum(rhs),rhsMax =   1.31852861962045E-13  4.59395918331881E-01
 cg2d: Sum(rhs),rhsMax =   7.18869408444789E-14  4.59247585562305E-01
 cg2d: Sum(rhs),rhsMax =   9.59510249032292E-14  4.59103482765123E-01
 cg2d: Sum(rhs),rhsMax =  -6.79178935314440E-14  4.58964114183057E-01
 cg2d: Sum(rhs),rhsMax =  -1.47784562365416E-13  4.58829681005285E-01
 cg2d: Sum(rhs),rhsMax =   3.33205685265625E-14  4.58700349883594E-01
 cg2d: Sum(rhs),rhsMax =  -5.73985303731206E-14  4.58576181013610E-01
 cg2d: Sum(rhs),rhsMax =  -5.07649478009853E-14  4.58457100394682E-01
 cg2d: Sum(rhs),rhsMax =   1.78260184391377E-13  4.58342964586635E-01
 cg2d: Sum(rhs),rhsMax =  -1.29674049276218E-13  4.58233466471050E-01
 cg2d: Sum(rhs),rhsMax =   1.14075415780235E-13  4.58128289053438E-01
 cg2d: Sum(rhs),rhsMax =   5.55250290190656E-14  4.58027009392392E-01
 cg2d: Sum(rhs),rhsMax =  -2.11705653008210E-13  4.57929090268166E-01
 cg2d: Sum(rhs),rhsMax =  -3.38951089418060E-13  4.57834000355429E-01
 cg2d: Sum(rhs),rhsMax =  -2.04350425470068E-13  4.57741151613353E-01
 cg2d: Sum(rhs),rhsMax =  -5.22498710964214E-14  4.57649861455943E-01
 cg2d: Sum(rhs),rhsMax =   2.60402810425830E-13  4.57559492375977E-01
 cg2d: Sum(rhs),rhsMax =  -9.98784388528406E-14  4.57468245800601E-01
 cg2d: Sum(rhs),rhsMax =  -1.18169363183540E-13  4.57376655510588E-01
 cg2d: Sum(rhs),rhsMax =  -1.47354350943374E-13  4.57284136772016E-01
 cg2d: Sum(rhs),rhsMax =   2.17770246280224E-13  4.57190079136903E-01
 cg2d: Sum(rhs),rhsMax =  -1.09384723501194E-13  4.57094024281929E-01
 cg2d: Sum(rhs),rhsMax =  -1.91471838384416E-13  4.56995437278868E-01
 cg2d: Sum(rhs),rhsMax =  -3.53744811221191E-14  4.56893899337045E-01
 cg2d: Sum(rhs),rhsMax =   1.57485136043078E-13  4.56789055315308E-01
 cg2d: Sum(rhs),rhsMax =  -6.01463323590679E-14  4.56680622742465E-01
 cg2d: Sum(rhs),rhsMax =  -2.48218112730569E-13  4.56568334355997E-01
 cg2d: Sum(rhs),rhsMax =  -3.17051940257329E-13  4.56451856739527E-01
 cg2d: Sum(rhs),rhsMax =   2.99760216648792E-15  4.56330968556529E-01
 cg2d: Sum(rhs),rhsMax =  -2.10942374678780E-14  4.56205535581322E-01
 cg2d: Sum(rhs),rhsMax =   9.76163594401669E-14  4.56075517911221E-01
 cg2d: Sum(rhs),rhsMax =  -4.95159468982820E-14  4.55941023874258E-01
 cg2d: Sum(rhs),rhsMax =  -1.16726073251527E-13  4.55802229498804E-01
 cg2d: Sum(rhs),rhsMax =   1.54570800603437E-13  4.55659374310580E-01
 cg2d: Sum(rhs),rhsMax =   2.09901540593194E-13  4.55512740011182E-01
 cg2d: Sum(rhs),rhsMax =  -3.24879012580936E-14  4.55362653775521E-01
 cg2d: Sum(rhs),rhsMax =  -2.81927259315751E-13  4.55209437353997E-01
 cg2d: Sum(rhs),rhsMax =  -4.44089209850063E-16  4.55053453153512E-01
 cg2d: Sum(rhs),rhsMax =  -1.43315914691300E-13  4.54895063068039E-01
 cg2d: Sum(rhs),rhsMax =   1.02418074021671E-13  4.54734673754330E-01
 cg2d: Sum(rhs),rhsMax =  -2.01921812603700E-13  4.54572620414069E-01
 cg2d: Sum(rhs),rhsMax =  -4.62796467814997E-13  4.54409243127699E-01
 cg2d: Sum(rhs),rhsMax =  -9.32032229172819E-14  4.54244908584296E-01
 cg2d: Sum(rhs),rhsMax =   2.47524223340179E-13  4.54079896400050E-01
 cg2d: Sum(rhs),rhsMax =  -7.98666688339722E-14  4.53914392220993E-01
 cg2d: Sum(rhs),rhsMax =  -1.10536579889242E-13  4.53748499659273E-01
 cg2d: Sum(rhs),rhsMax =  -2.60902410786912E-14  4.53583938701953E-01
 cg2d: Sum(rhs),rhsMax =   3.44890782599805E-13  4.53419473375522E-01
 cg2d: Sum(rhs),rhsMax =   3.75255382323303E-14  4.53254483389122E-01
 cg2d: Sum(rhs),rhsMax =  -1.58220658796893E-13  4.53088989107038E-01
 cg2d: Sum(rhs),rhsMax =   1.14283582597352E-13  4.52922899172668E-01
 cg2d: Sum(rhs),rhsMax =   2.78971290512686E-13  4.52756148738880E-01
 cg2d: Sum(rhs),rhsMax =   1.63591362678517E-13  4.52588686829394E-01
 cg2d: Sum(rhs),rhsMax =   9.71583924425090E-14  4.52420449820467E-01
 cg2d: Sum(rhs),rhsMax =   2.21517248988334E-13  4.52251474656249E-01
 cg2d: Sum(rhs),rhsMax =  -5.44009282066327E-14  4.52081820921572E-01
 cg2d: Sum(rhs),rhsMax =   2.21142548717523E-13  4.51911484368204E-01
 cg2d: Sum(rhs),rhsMax =   2.22280527317764E-13  4.51740536562637E-01
 cg2d: Sum(rhs),rhsMax =   3.96571664396106E-13  4.51569103761868E-01
 cg2d: Sum(rhs),rhsMax =   1.40609746068776E-13  4.51397306238851E-01
 cg2d: Sum(rhs),rhsMax =  -2.94972379855096E-13  4.51225284745926E-01
 cg2d: Sum(rhs),rhsMax =  -5.95218319077162E-14  4.51053179786187E-01
 cg2d: Sum(rhs),rhsMax =  -2.32092123297889E-13  4.50881128225881E-01
 cg2d: Sum(rhs),rhsMax =   1.51961776495568E-13  4.50709272615687E-01
 cg2d: Sum(rhs),rhsMax =  -2.86021206719056E-14  4.50537770067703E-01
 cg2d: Sum(rhs),rhsMax =   1.57041046833228E-13  4.50366784019826E-01
 cg2d: Sum(rhs),rhsMax =   6.67105259921641E-14  4.50196480199825E-01
 cg2d: Sum(rhs),rhsMax =  -2.66314748031959E-14  4.50026903370798E-01
 cg2d: Sum(rhs),rhsMax =  -1.85143567144053E-13  4.49858215417469E-01
 cg2d: Sum(rhs),rhsMax =   9.13991105022660E-14  4.49690607046293E-01
 cg2d: Sum(rhs),rhsMax =   2.50854892414054E-13  4.49524281652068E-01
 cg2d: Sum(rhs),rhsMax =   2.20948259688214E-13  4.49359449185373E-01
 cg2d: Sum(rhs),rhsMax =   7.71049890602171E-14  4.49196271236397E-01
 cg2d: Sum(rhs),rhsMax =  -1.80855330711438E-13  4.49034928870566E-01
 cg2d: Sum(rhs),rhsMax =   2.63303268077664E-13  4.48875565434537E-01
 cg2d: Sum(rhs),rhsMax =   5.86058979124005E-14  4.48718327069448E-01
 cg2d: Sum(rhs),rhsMax =  -2.38212227721135E-13  4.48563334086277E-01
 cg2d: Sum(rhs),rhsMax =   2.63261634714240E-13  4.48411006248317E-01
 cg2d: Sum(rhs),rhsMax =  -1.86961557346876E-13  4.48260181736250E-01
 cg2d: Sum(rhs),rhsMax =  -8.88317197578203E-14  4.48112789114232E-01
 cg2d: Sum(rhs),rhsMax =  -1.29979360607990E-13  4.47966834935372E-01
 cg2d: Sum(rhs),rhsMax =  -4.48252546192407E-15  4.47824091121838E-01
 cg2d: Sum(rhs),rhsMax =   4.54081217071689E-13  4.47682970521638E-01
 cg2d: Sum(rhs),rhsMax =   8.96643870262892E-14  4.47543987043708E-01
 cg2d: Sum(rhs),rhsMax =  -2.34909314222875E-13  4.47406831830135E-01
 cg2d: Sum(rhs),rhsMax =  -1.47618028911722E-13  4.47271282452788E-01
 cg2d: Sum(rhs),rhsMax =   7.27612414763712E-14  4.47136893883907E-01
 cg2d: Sum(rhs),rhsMax =  -3.62557206479153E-13  4.47004172619930E-01
 cg2d: Sum(rhs),rhsMax =   4.18137746649450E-14  4.46871683017004E-01
 cg2d: Sum(rhs),rhsMax =   3.06296654706273E-13  4.46740679620879E-01
 cg2d: Sum(rhs),rhsMax =   9.27591337074318E-14  4.46609391210339E-01
 cg2d: Sum(rhs),rhsMax =   1.08399400566839E-13  4.46478561953866E-01
 cg2d: Sum(rhs),rhsMax =   1.26565424807268E-13  4.46346837070975E-01
 cg2d: Sum(rhs),rhsMax =   1.33601463225830E-13  4.46214923671315E-01
 cg2d: Sum(rhs),rhsMax =   7.71743779992562E-14  4.46082139761952E-01
 cg2d: Sum(rhs),rhsMax =   1.34170452525950E-13  4.45947667444975E-01
 cg2d: Sum(rhs),rhsMax =  -1.80633286106513E-13  4.45812583313836E-01
 cg2d: Sum(rhs),rhsMax =   3.00731661795339E-14  4.45675667272379E-01
 cg2d: Sum(rhs),rhsMax =  -2.38697950294409E-14  4.45536879743662E-01
 cg2d: Sum(rhs),rhsMax =   2.55503951329672E-13  4.45396022050783E-01
 cg2d: Sum(rhs),rhsMax =  -8.82488526698921E-14  4.45252924459899E-01
 cg2d: Sum(rhs),rhsMax =  -1.02987063321791E-13  4.45107487812211E-01
 cg2d: Sum(rhs),rhsMax =  -4.72261119099926E-14  4.44959642214309E-01
 cg2d: Sum(rhs),rhsMax =   1.98868699285981E-13  4.44809312011171E-01
 cg2d: Sum(rhs),rhsMax =   3.96335742003373E-13  4.44656454056612E-01
 cg2d: Sum(rhs),rhsMax =   8.96088758750579E-14  4.44501146163508E-01
 cg2d: Sum(rhs),rhsMax =   1.97883376351626E-13  4.44394241340123E-01
 cg2d: Sum(rhs),rhsMax =   3.11972669919669E-13  4.44363039540544E-01
 cg2d: Sum(rhs),rhsMax =   7.13457071199741E-14  4.44333143366190E-01
 cg2d: Sum(rhs),rhsMax =  -1.10605968828281E-13  4.44304398746394E-01
 cg2d: Sum(rhs),rhsMax =  -6.25055562863963E-14  4.44275746316115E-01
 cg2d: Sum(rhs),rhsMax =   1.58553725704280E-13  4.44249494506577E-01
 cg2d: Sum(rhs),rhsMax =   2.24792406910979E-13  4.44223833281477E-01
 cg2d: Sum(rhs),rhsMax =   1.56347157442838E-13  4.44199905298300E-01
 cg2d: Sum(rhs),rhsMax =   2.61374255572377E-13  4.44177551151132E-01
 cg2d: Sum(rhs),rhsMax =   2.11969330976558E-13  4.44156791549359E-01
 cg2d: Sum(rhs),rhsMax =   2.75585110287579E-13  4.44137507985064E-01
 cg2d: Sum(rhs),rhsMax =   1.48908663177849E-14  4.44119702803462E-01
 cg2d: Sum(rhs),rhsMax =  -1.36363142999585E-13  4.44103361777250E-01
 cg2d: Sum(rhs),rhsMax =   3.37549432849471E-13  4.44088454176627E-01
 cg2d: Sum(rhs),rhsMax =  -1.52947099429923E-13  4.44074929091342E-01
 cg2d: Sum(rhs),rhsMax =   1.77774461818103E-13  4.44062719078133E-01
 cg2d: Sum(rhs),rhsMax =   2.93667867801162E-13  4.44051753801089E-01
 cg2d: Sum(rhs),rhsMax =  -5.15559817060307E-14  4.44041952119954E-01
 cg2d: Sum(rhs),rhsMax =  -3.04825609198645E-13  4.44033223772684E-01
 cg2d: Sum(rhs),rhsMax =   3.58893470497890E-13  4.44025462915548E-01
 cg2d: Sum(rhs),rhsMax =   2.96040969516298E-13  4.44018569495621E-01
 cg2d: Sum(rhs),rhsMax =   2.18255968853498E-13  4.44012444485409E-01
 cg2d: Sum(rhs),rhsMax =   9.47020240005259E-14  4.44006973233897E-01
 cg2d: Sum(rhs),rhsMax =  -1.91235915991683E-14  4.44002038793398E-01
 cg2d: Sum(rhs),rhsMax =  -1.94566585065559E-13  4.43997546681435E-01
 cg2d: Sum(rhs),rhsMax =  -6.75848266240564E-14  4.43993394813900E-01
 cg2d: Sum(rhs),rhsMax =  -8.14764922196787E-14  4.43989413069790E-01
 cg2d: Sum(rhs),rhsMax =  -8.23785484271866E-14  4.43985377457116E-01
 cg2d: Sum(rhs),rhsMax =  -1.18405285576273E-13  4.43981205114003E-01
 cg2d: Sum(rhs),rhsMax =  -3.12347370190480E-13  4.43976808970883E-01
 cg2d: Sum(rhs),rhsMax =   2.31481500634345E-14  4.43972114774504E-01
 cg2d: Sum(rhs),rhsMax =   5.31380495161216E-14  4.43967060197481E-01
 cg2d: Sum(rhs),rhsMax =   6.00075544809897E-14  4.43961567484306E-01
 cg2d: Sum(rhs),rhsMax =   3.52773366074643E-14  4.43955601598405E-01
 cg2d: Sum(rhs),rhsMax =   2.52201037831412E-13  4.43949099349664E-01
 cg2d: Sum(rhs),rhsMax =  -2.32730501537048E-14  4.43942016482830E-01
 cg2d: Sum(rhs),rhsMax =   3.31262794972531E-14  4.43934307287560E-01
 cg2d: Sum(rhs),rhsMax =  -3.71994102188467E-13  4.43925933352230E-01
 cg2d: Sum(rhs),rhsMax =  -5.39429612089748E-14  4.43916854280318E-01
 cg2d: Sum(rhs),rhsMax =  -2.17811879643648E-13  4.43907033558038E-01
 cg2d: Sum(rhs),rhsMax =   2.57238674805649E-13  4.43896384351164E-01
 cg2d: Sum(rhs),rhsMax =   3.78030939884866E-14  4.43884905821551E-01
 cg2d: Sum(rhs),rhsMax =  -1.80827575135822E-14  4.43872532344429E-01
 cg2d: Sum(rhs),rhsMax =   2.49966713994354E-13  4.43859182580318E-01
 cg2d: Sum(rhs),rhsMax =  -3.33066907387547E-14  4.43844687842246E-01
 cg2d: Sum(rhs),rhsMax =  -5.52613510507172E-14  4.43829191444246E-01
 cg2d: Sum(rhs),rhsMax =  -3.51024764810859E-13  4.43812685319894E-01
 cg2d: Sum(rhs),rhsMax =   8.96643870262892E-14  4.43795156699177E-01
 cg2d: Sum(rhs),rhsMax =  -3.28959082196434E-13  4.43776593585582E-01
 cg2d: Sum(rhs),rhsMax =  -3.73465147696095E-13  4.43756992648804E-01
 cg2d: Sum(rhs),rhsMax =  -2.50396925416396E-13  4.43736363701387E-01
 cg2d: Sum(rhs),rhsMax =   1.88529747369159E-13  4.43714721656250E-01
 cg2d: Sum(rhs),rhsMax =  -3.64569485711286E-13  4.43691992611375E-01
 cg2d: Sum(rhs),rhsMax =   6.07000560925997E-13  4.43668227291511E-01
 cg2d: Sum(rhs),rhsMax =  -3.08975067753181E-13  4.43643500906117E-01
 cg2d: Sum(rhs),rhsMax =  -2.00617300549766E-13  4.43617911403101E-01
 cg2d: Sum(rhs),rhsMax =  -2.23113194586233E-13  4.43591584465254E-01
 cg2d: Sum(rhs),rhsMax =   1.59899871121638E-13  4.43564646454608E-01
 cg2d: Sum(rhs),rhsMax =   3.45140582780346E-14  4.43537224324571E-01
 cg2d: Sum(rhs),rhsMax =   2.06043515582621E-13  4.43509518896309E-01
 cg2d: Sum(rhs),rhsMax =   1.33476563135559E-13  4.43481672854006E-01
 cg2d: Sum(rhs),rhsMax =  -1.82701076489877E-13  4.43453742975602E-01
 cg2d: Sum(rhs),rhsMax =  -3.93574062229618E-14  4.43425921072105E-01
 cg2d: Sum(rhs),rhsMax =   1.90333859784175E-13  4.43398363808657E-01
 cg2d: Sum(rhs),rhsMax =  -2.16118789531095E-13  4.43371261184349E-01
 cg2d: Sum(rhs),rhsMax =  -2.71477285096466E-13  4.43344802763432E-01
 cg2d: Sum(rhs),rhsMax =   1.80411241501588E-13  4.43319172735485E-01
 cg2d: Sum(rhs),rhsMax =  -1.49408263538930E-13  4.43294559545169E-01
 cg2d: Sum(rhs),rhsMax =  -7.39824868034589E-14  4.43271127896284E-01
 cg2d: Sum(rhs),rhsMax =  -4.15181777846385E-13  4.43249042110274E-01
 cg2d: Sum(rhs),rhsMax =   2.79581913176230E-13  4.43228459235443E-01
 cg2d: Sum(rhs),rhsMax =   4.74897898783411E-14  4.43209502294984E-01
 cg2d: Sum(rhs),rhsMax =   1.34336985979644E-13  4.43375640374662E-01
 cg2d: Sum(rhs),rhsMax =   1.17128529097954E-13  4.43756944521616E-01
 cg2d: Sum(rhs),rhsMax =  -3.66789931760536E-14  4.44141637264907E-01
 cg2d: Sum(rhs),rhsMax =  -6.48647802137248E-14  4.44530269272732E-01
 cg2d: Sum(rhs),rhsMax =  -2.42722508758675E-14  4.44922767776916E-01
 cg2d: Sum(rhs),rhsMax =   1.82825976580148E-13  4.45318746688671E-01
 cg2d: Sum(rhs),rhsMax =  -1.45022882591661E-13  4.45718053584221E-01
 cg2d: Sum(rhs),rhsMax =   9.36889454905554E-14  4.46120328572658E-01
 cg2d: Sum(rhs),rhsMax =  -2.47288300947446E-13  4.46525186579361E-01
 cg2d: Sum(rhs),rhsMax =   1.31464283903426E-13  4.46932347322362E-01
 cg2d: Sum(rhs),rhsMax =  -2.24736895759747E-13  4.47341151561573E-01
 cg2d: Sum(rhs),rhsMax =  -1.31644695144928E-13  4.47750886512524E-01
 cg2d: Sum(rhs),rhsMax =   8.92896867554782E-14  4.48160883176707E-01
 cg2d: Sum(rhs),rhsMax =  -2.18325357792537E-13  4.48570416800593E-01
 cg2d: Sum(rhs),rhsMax =   1.32963084986670E-13  4.48978782207038E-01
 cg2d: Sum(rhs),rhsMax =  -9.67559365960824E-14  4.49385016507085E-01
 cg2d: Sum(rhs),rhsMax =  -5.08135200583126E-13  4.49789901324016E-01
 cg2d: Sum(rhs),rhsMax =   3.86038423449975E-13  4.50189294765371E-01
 cg2d: Sum(rhs),rhsMax =  -2.59237076249974E-14  4.50588518748191E-01
 cg2d: Sum(rhs),rhsMax =   2.23029927859386E-13  4.50981999932905E-01
 cg2d: Sum(rhs),rhsMax =  -1.91610616262494E-13  4.51372632248189E-01
 cg2d: Sum(rhs),rhsMax =   1.82631687550838E-13  4.51759352812700E-01
 cg2d: Sum(rhs),rhsMax =  -2.25916507723412E-13  4.52142487449845E-01
 cg2d: Sum(rhs),rhsMax =   2.66134336790458E-13  4.52522221969806E-01
 cg2d: Sum(rhs),rhsMax =  -2.07570072241481E-13  4.52900139955288E-01
 cg2d: Sum(rhs),rhsMax =   2.59278709613397E-13  4.53276488757977E-01
 cg2d: Sum(rhs),rhsMax =   1.21042065259758E-13  4.53651568509900E-01
 cg2d: Sum(rhs),rhsMax =  -1.73930314595339E-13  4.54026019861341E-01
 cg2d: Sum(rhs),rhsMax =   2.44901321444502E-13  4.54400343708277E-01
 cg2d: Sum(rhs),rhsMax =   6.53435638930944E-13  4.54774938715257E-01
 cg2d: Sum(rhs),rhsMax =  -3.69079766748825E-13  4.55150243170615E-01
 cg2d: Sum(rhs),rhsMax =   1.55681023628063E-13  4.55526763604406E-01
 cg2d: Sum(rhs),rhsMax =  -1.10855769008822E-13  4.55904931061678E-01
 cg2d: Sum(rhs),rhsMax =  -1.61939905929387E-13  4.56285104587156E-01
 cg2d: Sum(rhs),rhsMax =   2.10553796620161E-13  4.56667647367401E-01
 cg2d: Sum(rhs),rhsMax =  -1.41817113608056E-13  4.57053118072519E-01
 cg2d: Sum(rhs),rhsMax =   2.35783614854768E-14  4.57441931896139E-01
 cg2d: Sum(rhs),rhsMax =   1.47229450853104E-13  4.57834290968536E-01
 cg2d: Sum(rhs),rhsMax =  -2.18408624519384E-13  4.58230211000705E-01
 cg2d: Sum(rhs),rhsMax =  -1.31020194693576E-13  4.58629555102806E-01
 cg2d: Sum(rhs),rhsMax =   1.35336186701807E-13  4.59033191432531E-01
 cg2d: Sum(rhs),rhsMax =   3.03368441478824E-14  4.59440414453463E-01
 cg2d: Sum(rhs),rhsMax =   3.98597821416047E-13  4.59851257013799E-01
 cg2d: Sum(rhs),rhsMax =   8.06438249512098E-14  4.60264910990848E-01
 cg2d: Sum(rhs),rhsMax =   6.74460487459783E-15  4.60681570831238E-01
 cg2d: Sum(rhs),rhsMax =  -1.70266578614076E-13  4.61099757143526E-01
 cg2d: Sum(rhs),rhsMax =   1.09107167745037E-13  4.61518596601940E-01
 cg2d: Sum(rhs),rhsMax =   2.03934091835833E-13  4.61929024483984E-01
 cg2d: Sum(rhs),rhsMax =  -2.37199149211165E-13  4.62338461579548E-01
 cg2d: Sum(rhs),rhsMax =   3.19702597728622E-13  4.62747405890461E-01
 cg2d: Sum(rhs),rhsMax =  -1.37320710358324E-13  4.63153843588902E-01
 cg2d: Sum(rhs),rhsMax =   1.89376292425436E-13  4.63556961562812E-01
 cg2d: Sum(rhs),rhsMax =   1.03361763592602E-13  4.63956020706322E-01
 cg2d: Sum(rhs),rhsMax =  -8.61810622865278E-15  4.64350334155574E-01
 cg2d: Sum(rhs),rhsMax =   2.13717932240343E-15  4.64739294888292E-01
 cg2d: Sum(rhs),rhsMax =   8.05605582243629E-14  4.65122396387869E-01
 cg2d: Sum(rhs),rhsMax =   2.04489203348146E-13  4.65499251922332E-01
 cg2d: Sum(rhs),rhsMax =   1.60704782814491E-14  4.65869597992764E-01
 cg2d: Sum(rhs),rhsMax =   1.11299858218672E-13  4.66233022498129E-01
 cg2d: Sum(rhs),rhsMax =   3.73742703452251E-13  4.66589694882417E-01
 cg2d: Sum(rhs),rhsMax =   3.41546235738122E-13  4.66939632015770E-01
 cg2d: Sum(rhs),rhsMax =   1.84768866873242E-13  4.67282576336633E-01
 cg2d: Sum(rhs),rhsMax =  -3.29597460435593E-14  4.67619654304183E-01
 cg2d: Sum(rhs),rhsMax =   2.55656606995558E-13  4.67951456675784E-01
 cg2d: Sum(rhs),rhsMax =   7.28861415666415E-14  4.68279104354609E-01
 cg2d: Sum(rhs),rhsMax =   1.87350135405495E-13  4.68603730625572E-01
 cg2d: Sum(rhs),rhsMax =   1.60010893424101E-14  4.68926170175354E-01
 cg2d: Sum(rhs),rhsMax =  -4.41729985922734E-14  4.69247477274761E-01
 cg2d: Sum(rhs),rhsMax =  -2.28206342711701E-13  4.69568209629671E-01
 cg2d: Sum(rhs),rhsMax =  -3.16274784140091E-14  4.69889477478881E-01
 cg2d: Sum(rhs),rhsMax =  -1.11605169550444E-13  4.70212012415539E-01
 cg2d: Sum(rhs),rhsMax =   1.92901250528621E-13  4.70536699622233E-01
 cg2d: Sum(rhs),rhsMax =  -1.99090743890906E-13  4.70864458278238E-01
 cg2d: Sum(rhs),rhsMax =  -2.57793786317961E-13  4.71196066763367E-01
 cg2d: Sum(rhs),rhsMax =   2.39058772777412E-13  4.71532185408848E-01
 cg2d: Sum(rhs),rhsMax =  -2.25375273998907E-13  4.71873471409365E-01
 cg2d: Sum(rhs),rhsMax =   1.10786380069783E-13  4.72220433713552E-01
 cg2d: Sum(rhs),rhsMax =   2.69603783742411E-13  4.72574113866167E-01
 cg2d: Sum(rhs),rhsMax =  -6.71962485654376E-14  4.72934880353524E-01
 cg2d: Sum(rhs),rhsMax =  -4.94049245958195E-14  4.73302813994185E-01
 cg2d: Sum(rhs),rhsMax =   2.23585039371699E-13  4.73677956000999E-01
 cg2d: Sum(rhs),rhsMax =   1.27800547922163E-13  4.74060327008745E-01
 cg2d: Sum(rhs),rhsMax =   1.50976453561213E-13  4.74449670169968E-01
 cg2d: Sum(rhs),rhsMax =  -8.03662691950535E-14  4.74845571196539E-01
 cg2d: Sum(rhs),rhsMax =   5.68989300120393E-16  4.75246722783533E-01
 cg2d: Sum(rhs),rhsMax =   1.63577484890709E-13  4.75653209786815E-01
 cg2d: Sum(rhs),rhsMax =   8.59590176816027E-14  4.76064546349334E-01
 cg2d: Sum(rhs),rhsMax =   8.50014503228635E-14  4.76479466468822E-01
 cg2d: Sum(rhs),rhsMax =  -3.04284375474140E-13  4.76897162441176E-01
 cg2d: Sum(rhs),rhsMax =  -1.78093650937683E-13  4.77316631632146E-01
 cg2d: Sum(rhs),rhsMax =  -1.21402887742761E-13  4.77736926820238E-01
 cg2d: Sum(rhs),rhsMax =  -5.49421619311374E-14  4.78157048213072E-01
 cg2d: Sum(rhs),rhsMax =   2.95458102428370E-13  4.78575991341463E-01
 cg2d: Sum(rhs),rhsMax =   2.18505769034039E-13  4.78992790078095E-01
 cg2d: Sum(rhs),rhsMax =   9.98090499138016E-14  4.79406553390470E-01
 cg2d: Sum(rhs),rhsMax =  -2.71296873854965E-13  4.79816460154027E-01
 cg2d: Sum(rhs),rhsMax =  -1.18516307878735E-13  4.80221775999858E-01
 cg2d: Sum(rhs),rhsMax =  -5.75789416146222E-14  4.80621863168299E-01
 cg2d: Sum(rhs),rhsMax =   8.87484530309735E-14  4.81016225009926E-01
 cg2d: Sum(rhs),rhsMax =   2.06709649397396E-13  4.81404468457400E-01
 cg2d: Sum(rhs),rhsMax =  -1.77954873059605E-13  4.81786374567810E-01
 cg2d: Sum(rhs),rhsMax =  -6.98052726733067E-15  4.82161814760624E-01
 cg2d: Sum(rhs),rhsMax =   2.51493270653214E-13  4.82530808143295E-01
 cg2d: Sum(rhs),rhsMax =   1.19793064357054E-13  4.82893634393446E-01
 cg2d: Sum(rhs),rhsMax =   2.28400631741010E-13  4.83251114233799E-01
 cg2d: Sum(rhs),rhsMax =  -8.01164690145129E-14  4.83603447560943E-01
 cg2d: Sum(rhs),rhsMax =   4.23272528138341E-14  4.83950900760503E-01
 cg2d: Sum(rhs),rhsMax =  -5.73430192218893E-14  4.84293816522055E-01
 cg2d: Sum(rhs),rhsMax =  -6.24222895595494E-14  4.84632594795135E-01
 cg2d: Sum(rhs),rhsMax =   2.10068074046887E-13  4.84967689152755E-01
 cg2d: Sum(rhs),rhsMax =   1.07566733298370E-13  4.85299134647408E-01
 cg2d: Sum(rhs),rhsMax =   1.73985825746570E-13  4.85635435639268E-01
 cg2d: Sum(rhs),rhsMax =   2.45831133227625E-13  4.85970147736542E-01
 cg2d: Sum(rhs),rhsMax =  -9.13019659876113E-14  4.86304143426491E-01
 cg2d: Sum(rhs),rhsMax =  -1.19487753025282E-14  4.86638131985349E-01
 cg2d: Sum(rhs),rhsMax =   4.59909887950971E-14  4.86972737778630E-01
 cg2d: Sum(rhs),rhsMax =   9.88931159184858E-14  4.87308440982260E-01
 cg2d: Sum(rhs),rhsMax =  -2.24251173186474E-13  4.87645688876140E-01
 cg2d: Sum(rhs),rhsMax =   1.64174229766445E-14  4.87984819015222E-01
 cg2d: Sum(rhs),rhsMax =  -1.05929154337048E-13  4.88325716857959E-01
 cg2d: Sum(rhs),rhsMax =   2.39780417743418E-13  4.88668974828023E-01
 cg2d: Sum(rhs),rhsMax =  -3.61682905847260E-13  4.89014711053881E-01
 cg2d: Sum(rhs),rhsMax =   2.33577046593325E-13  4.89362943766149E-01
 cg2d: Sum(rhs),rhsMax =   1.03361763592602E-13  4.89713717331410E-01
 cg2d: Sum(rhs),rhsMax =   1.06165076729781E-13  4.90066818903390E-01
 cg2d: Sum(rhs),rhsMax =   1.48478451755807E-13  4.90422082333438E-01
 cg2d: Sum(rhs),rhsMax =   1.05471187339390E-13  4.90779269491366E-01
 cg2d: Sum(rhs),rhsMax =   2.12357909035177E-13  4.91138142598079E-01
 cg2d: Sum(rhs),rhsMax =   3.78169717762944E-14  4.91498375060049E-01
 cg2d: Sum(rhs),rhsMax =  -1.33310029681866E-13  4.91859672972453E-01
 cg2d: Sum(rhs),rhsMax =  -3.42087469462626E-14  4.92221689562992E-01
 cg2d: Sum(rhs),rhsMax =   3.94406729498087E-14  4.92584145010334E-01
 cg2d: Sum(rhs),rhsMax =   2.31550889573384E-13  4.92946738536269E-01
 cg2d: Sum(rhs),rhsMax =   1.77760584030295E-13  4.93309205266193E-01
 cg2d: Sum(rhs),rhsMax =   1.65714664213112E-13  4.93671311416839E-01
 cg2d: Sum(rhs),rhsMax =   2.25472418513561E-13  4.94032877606965E-01
 cg2d: Sum(rhs),rhsMax =  -3.23352455922077E-14  4.94393751476883E-01
 cg2d: Sum(rhs),rhsMax =  -1.13964393477772E-13  4.94754537692866E-01
 cg2d: Sum(rhs),rhsMax =   8.19760925807600E-14  4.95114456352011E-01
 cg2d: Sum(rhs),rhsMax =   9.78384040450919E-15  4.95473492722467E-01
 cg2d: Sum(rhs),rhsMax =  -2.24112395308396E-13  4.95831691796624E-01
 cg2d: Sum(rhs),rhsMax =   1.43815515052381E-13  4.96189541686486E-01
 cg2d: Sum(rhs),rhsMax =  -3.84803300335079E-13  4.96547036576663E-01
 cg2d: Sum(rhs),rhsMax =  -1.00475183728577E-14  4.96904401928721E-01
 cg2d: Sum(rhs),rhsMax =  -1.18224874334771E-13  4.97261709984537E-01
 cg2d: Sum(rhs),rhsMax =   2.71935252094124E-13  4.97618896092975E-01
 cg2d: Sum(rhs),rhsMax =  -2.24181784247435E-13  4.97976664090424E-01
 cg2d: Sum(rhs),rhsMax =  -1.70280456401883E-13  4.98334464327657E-01
 cg2d: Sum(rhs),rhsMax =  -2.23154827949656E-14  4.98692421878390E-01
 cg2d: Sum(rhs),rhsMax =   2.72684652635746E-13  4.99050544759752E-01
 cg2d: Sum(rhs),rhsMax =   5.23192600354605E-14  4.99409086646286E-01
 cg2d: Sum(rhs),rhsMax =   7.99221799852035E-14  4.99767879549230E-01
 cg2d: Sum(rhs),rhsMax =  -2.48773224242882E-13  5.00127499360523E-01
 cg2d: Sum(rhs),rhsMax =  -1.71321290487469E-13  5.00487500058787E-01
 cg2d: Sum(rhs),rhsMax =   2.46330733588707E-14  5.00847957073235E-01
 cg2d: Sum(rhs),rhsMax =   1.40304434737004E-13  5.01208713018262E-01
 cg2d: Sum(rhs),rhsMax =   2.29566365916867E-13  5.01569637072763E-01
 cg2d: Sum(rhs),rhsMax =  -1.54126711393587E-13  5.01930481757944E-01
 cg2d: Sum(rhs),rhsMax =   1.17267306976032E-14  5.02291158308206E-01
 cg2d: Sum(rhs),rhsMax =   2.51465515077598E-13  5.02651296633405E-01
 cg2d: Sum(rhs),rhsMax =   2.10526041044545E-14  5.03010638873280E-01
 cg2d: Sum(rhs),rhsMax =  -3.59157148466238E-14  5.03368795975531E-01
 cg2d: Sum(rhs),rhsMax =  -4.85167461761193E-14  5.03725332514377E-01
 cg2d: Sum(rhs),rhsMax =  -1.64618318976295E-13  5.04079727360222E-01
 cg2d: Sum(rhs),rhsMax =   5.96050986345631E-14  5.04431389872152E-01
 cg2d: Sum(rhs),rhsMax =  -5.98548988151038E-14  5.04779691803251E-01
 cg2d: Sum(rhs),rhsMax =   1.14214193658313E-13  5.05124019417126E-01
 cg2d: Sum(rhs),rhsMax =  -1.43260403540069E-13  5.05463788977185E-01
 cg2d: Sum(rhs),rhsMax =  -1.25094379299640E-13  5.05798233644131E-01
 cg2d: Sum(rhs),rhsMax =   1.32338584535319E-13  5.06127147456781E-01
 cg2d: Sum(rhs),rhsMax =  -1.03389519168218E-14  5.06450791194049E-01
 cg2d: Sum(rhs),rhsMax =   1.38777878078145E-16  5.06768769530359E-01
 cg2d: Sum(rhs),rhsMax =   2.20226614722208E-13  5.07081173430689E-01
 cg2d: Sum(rhs),rhsMax =   1.41595069003131E-13  5.07377363365115E-01
 cg2d: Sum(rhs),rhsMax =   8.27532486979976E-14  5.07668151299700E-01
 cg2d: Sum(rhs),rhsMax =  -2.22349916256803E-13  5.07954223377312E-01
 cg2d: Sum(rhs),rhsMax =  -1.77080572427712E-14  5.08236141633022E-01
 cg2d: Sum(rhs),rhsMax =  -8.66667848598013E-14  5.08514566811702E-01
 cg2d: Sum(rhs),rhsMax =   1.74332770441765E-13  5.08790203999160E-01
 cg2d: Sum(rhs),rhsMax =  -2.44096409751648E-13  5.09064137102631E-01
 cg2d: Sum(rhs),rhsMax =  -1.31922250901084E-13  5.09337211167711E-01
 cg2d: Sum(rhs),rhsMax =   1.22041265981920E-13  5.09610157082870E-01
 cg2d: Sum(rhs),rhsMax =  -2.28012053682392E-14  5.09883575515247E-01
 cg2d: Sum(rhs),rhsMax =   2.43638442753991E-13  5.10158011434580E-01
 cg2d: Sum(rhs),rhsMax =   2.56600296566489E-14  5.10434047494448E-01
 cg2d: Sum(rhs),rhsMax =  -1.46424539160250E-13  5.10712173772033E-01
 cg2d: Sum(rhs),rhsMax =   2.29552488129059E-13  5.10983082718159E-01
 cg2d: Sum(rhs),rhsMax =   8.37524494201602E-14  5.11156369953836E-01
 cg2d: Sum(rhs),rhsMax =  -5.40817390870529E-14  5.11334047150325E-01
 cg2d: Sum(rhs),rhsMax =  -3.66470742640956E-13  5.11514916704522E-01
 cg2d: Sum(rhs),rhsMax =  -3.02910474481166E-13  5.11702741325076E-01
 cg2d: Sum(rhs),rhsMax =  -4.61297666731753E-14  5.11896329761484E-01
 cg2d: Sum(rhs),rhsMax =   2.73225886360251E-13  5.12096494460121E-01
 cg2d: Sum(rhs),rhsMax =   8.46683834154760E-14  5.12302422221616E-01
 cg2d: Sum(rhs),rhsMax =  -3.23158166892767E-13  5.12514170955694E-01
 cg2d: Sum(rhs),rhsMax =  -2.48037701489068E-13  5.12731317553023E-01
 cg2d: Sum(rhs),rhsMax =   3.02688429876241E-13  5.12953387376786E-01
 cg2d: Sum(rhs),rhsMax =  -3.56242813026597E-14  5.13179719383907E-01
 cg2d: Sum(rhs),rhsMax =   2.25097718242750E-14  5.13409604897857E-01
 cg2d: Sum(rhs),rhsMax =  -2.67633137873702E-13  5.13642239756190E-01
 cg2d: Sum(rhs),rhsMax =  -3.13207793034564E-13  5.13876751652755E-01
 cg2d: Sum(rhs),rhsMax =  -2.71394018369620E-13  5.14112273411466E-01
 cg2d: Sum(rhs),rhsMax =   1.33212885167211E-13  5.14347873302699E-01
 cg2d: Sum(rhs),rhsMax =  -5.40678612992451E-14  5.14582677028086E-01
 cg2d: Sum(rhs),rhsMax =  -1.45328193923433E-13  5.14815832525246E-01
 cg2d: Sum(rhs),rhsMax =   1.56888391167342E-13  5.15046538587485E-01
 cg2d: Sum(rhs),rhsMax =   1.89265270122974E-13  5.15274066947397E-01
 cg2d: Sum(rhs),rhsMax =  -1.12437836818913E-13  5.15497767273740E-01
 cg2d: Sum(rhs),rhsMax =  -2.20198859146592E-13  5.15716880757861E-01
 cg2d: Sum(rhs),rhsMax =  -8.75410854916936E-14  5.15930838515177E-01
 cg2d: Sum(rhs),rhsMax =   2.03587147140638E-14  5.16139359511527E-01
 cg2d: Sum(rhs),rhsMax =  -6.94305724024957E-14  5.16342284599510E-01
 cg2d: Sum(rhs),rhsMax =   6.17422779569665E-14  5.16539588131318E-01
 cg2d: Sum(rhs),rhsMax =  -2.51840215348409E-13  5.16731355487119E-01
 cg2d: Sum(rhs),rhsMax =   2.85604873084822E-14  5.16917759203218E-01
 cg2d: Sum(rhs),rhsMax =   1.72001302090052E-13  5.17099179153654E-01
 cg2d: Sum(rhs),rhsMax =   3.04298253261948E-13  5.17276047063559E-01
 cg2d: Sum(rhs),rhsMax =   6.16312556545040E-14  5.17449225514247E-01
 cg2d: Sum(rhs),rhsMax =   1.72931113873176E-13  5.17618540021517E-01
 cg2d: Sum(rhs),rhsMax =   2.03323469172290E-13  5.17785103363681E-01
 cg2d: Sum(rhs),rhsMax =   8.78186412478499E-14  5.17949689341881E-01
 cg2d: Sum(rhs),rhsMax =   1.41095468642050E-13  5.18112751922183E-01
 cg2d: Sum(rhs),rhsMax =  -2.94764213037979E-14  5.18273910387293E-01
 cg2d: Sum(rhs),rhsMax =   1.58803525884821E-13  5.18435897475935E-01
 cg2d: Sum(rhs),rhsMax =   1.16573417585641E-14  5.18597365171368E-01
 cg2d: Sum(rhs),rhsMax =  -7.71605002114484E-14  5.18759066146515E-01
 cg2d: Sum(rhs),rhsMax =  -1.64410152159178E-13  5.18921383459291E-01
 cg2d: Sum(rhs),rhsMax =  -8.99835761458689E-14  5.19084894127193E-01
 cg2d: Sum(rhs),rhsMax =  -2.02032834906163E-13  5.19249868155540E-01
 cg2d: Sum(rhs),rhsMax =  -1.94150251431324E-14  5.19416423824294E-01
 cg2d: Sum(rhs),rhsMax =  -3.83998388642226E-14  5.19584623970125E-01
 cg2d: Sum(rhs),rhsMax =   1.14339093748583E-13  5.19754424908159E-01
 cg2d: Sum(rhs),rhsMax =  -1.25510712933874E-13  5.19925694481923E-01
 cg2d: Sum(rhs),rhsMax =   1.04097286346416E-13  5.20098227261566E-01
 cg2d: Sum(rhs),rhsMax =  -2.71754840852623E-13  5.20271734368200E-01
 cg2d: Sum(rhs),rhsMax =  -1.17086895734531E-13  5.20445888250135E-01
 cg2d: Sum(rhs),rhsMax =   3.05408476286573E-13  5.20620317767049E-01
 cg2d: Sum(rhs),rhsMax =   1.07650000025217E-13  5.20794630690049E-01
 cg2d: Sum(rhs),rhsMax =   1.86892168407837E-13  5.20968416753218E-01
 cg2d: Sum(rhs),rhsMax =   2.21350715534641E-13  5.21141232407149E-01
 cg2d: Sum(rhs),rhsMax =  -9.14546216534973E-15  5.21313467776175E-01
 cg2d: Sum(rhs),rhsMax =   2.75765521529081E-13  5.21484028760135E-01
 cg2d: Sum(rhs),rhsMax =   1.28230759344206E-14  5.21652573714412E-01
 cg2d: Sum(rhs),rhsMax =   7.76878561481453E-14  5.21818828211710E-01
 cg2d: Sum(rhs),rhsMax =  -1.87419524344534E-13  5.21982588529957E-01
 cg2d: Sum(rhs),rhsMax =   9.85322934354826E-16  5.22148283021554E-01
 cg2d: Sum(rhs),rhsMax =   6.82093270754081E-14  5.22311322683689E-01
 cg2d: Sum(rhs),rhsMax =  -1.91735516352765E-13  5.22471760667206E-01
 cg2d: Sum(rhs),rhsMax =   1.65728542000920E-13  5.22629835138872E-01
 cg2d: Sum(rhs),rhsMax =   5.80646641878957E-14  5.22785871361495E-01
 cg2d: Sum(rhs),rhsMax =  -3.45876105534160E-13  5.22940263067485E-01
 cg2d: Sum(rhs),rhsMax =   1.01113561967736E-13  5.23093437821794E-01
 cg2d: Sum(rhs),rhsMax =   1.72972747236599E-13  5.23245865220762E-01
 cg2d: Sum(rhs),rhsMax =   3.67761376907083E-13  5.23398081405146E-01
 cg2d: Sum(rhs),rhsMax =   6.94028168268801E-14  5.23550615122295E-01
 cg2d: Sum(rhs),rhsMax =   4.31321645066873E-14  5.23704000511145E-01
 cg2d: Sum(rhs),rhsMax =   1.46604950401752E-13  5.23858755748012E-01
 cg2d: Sum(rhs),rhsMax =   7.78682673896469E-14  5.24015476844076E-01
 cg2d: Sum(rhs),rhsMax =  -1.18793863634892E-13  5.24174825510413E-01
 cg2d: Sum(rhs),rhsMax =  -3.49442697000768E-14  5.24337118352061E-01
 cg2d: Sum(rhs),rhsMax =   3.62626595418192E-14  5.24502769228711E-01
 cg2d: Sum(rhs),rhsMax =  -2.63344901441087E-13  5.24671957790042E-01
 cg2d: Sum(rhs),rhsMax =   3.08128522696904E-13  5.24844439714057E-01
 cg2d: Sum(rhs),rhsMax =   2.26041407813682E-13  5.25020382858903E-01
 cg2d: Sum(rhs),rhsMax =  -1.80314096986933E-13  5.25199685038184E-01
 cg2d: Sum(rhs),rhsMax =  -2.13495887635418E-13  5.25382474999937E-01
 cg2d: Sum(rhs),rhsMax =  -1.67851843535516E-13  5.25568236447256E-01
 cg2d: Sum(rhs),rhsMax =   2.66994759634542E-13  5.25757386482883E-01
 cg2d: Sum(rhs),rhsMax =  -8.85264084260484E-14  5.25948419148200E-01
 cg2d: Sum(rhs),rhsMax =  -3.78169717762944E-14  5.26141391554690E-01
 cg2d: Sum(rhs),rhsMax =  -3.46944695195361E-14  5.26335618650382E-01
 cg2d: Sum(rhs),rhsMax =  -3.37382899395777E-13  5.26530454386272E-01
 cg2d: Sum(rhs),rhsMax =  -1.59483537487404E-13  5.26724986342319E-01
 cg2d: Sum(rhs),rhsMax =  -7.80486786311485E-14  5.26918577014429E-01
 cg2d: Sum(rhs),rhsMax =  -6.32965901914417E-14  5.27110423199409E-01
 cg2d: Sum(rhs),rhsMax =  -5.04318808935977E-14  5.27299726229191E-01
 cg2d: Sum(rhs),rhsMax =   1.77746706242488E-13  5.27485689742629E-01
 cg2d: Sum(rhs),rhsMax =  -1.69989022857919E-13  5.27667569337533E-01
 cg2d: Sum(rhs),rhsMax =   3.00176550283027E-13  5.27844675418083E-01
 cg2d: Sum(rhs),rhsMax =   2.53602694400001E-13  5.28016395273168E-01
 cg2d: Sum(rhs),rhsMax =  -1.31838984174237E-13  5.28182212374176E-01
 cg2d: Sum(rhs),rhsMax =  -2.96568325452995E-14  5.28341570921428E-01
 cg2d: Sum(rhs),rhsMax =   3.46528361561127E-14  5.28494330644202E-01
 cg2d: Sum(rhs),rhsMax =   1.23193122369969E-13  5.28640369271225E-01
 cg2d: Sum(rhs),rhsMax =  -3.07878722516364E-13  5.28779654147794E-01
 cg2d: Sum(rhs),rhsMax =  -1.86489712561411E-13  5.28912315411196E-01
 cg2d: Sum(rhs),rhsMax =   2.20795604022328E-14  5.29038628402736E-01
 cg2d: Sum(rhs),rhsMax =   2.07028838516976E-13  5.29159007265187E-01
 cg2d: Sum(rhs),rhsMax =  -2.34742780769182E-13  5.29273763825278E-01
 cg2d: Sum(rhs),rhsMax =  -5.31519273039294E-15  5.29383782761784E-01
 cg2d: Sum(rhs),rhsMax =   3.77753384128710E-14  5.29489840289168E-01
 cg2d: Sum(rhs),rhsMax =   7.24281745689836E-14  5.29592788019423E-01
 cg2d: Sum(rhs),rhsMax =   1.13742348872847E-13  5.29693552741933E-01
 cg2d: Sum(rhs),rhsMax =   1.85157444931860E-13  5.29793100695087E-01
 cg2d: Sum(rhs),rhsMax =  -2.27734497926235E-14  5.29892772754693E-01
 cg2d: Sum(rhs),rhsMax =   2.12455053549832E-13  5.29993602953607E-01
 cg2d: Sum(rhs),rhsMax =   1.19210197269126E-13  5.30096469238775E-01
 cg2d: Sum(rhs),rhsMax =   2.10623185559200E-13  5.30202197501775E-01
 cg2d: Sum(rhs),rhsMax =  -1.54293244847281E-13  5.30311475732239E-01
 cg2d: Sum(rhs),rhsMax =   3.42822992216441E-13  5.30387059158423E-01
 cg2d: Sum(rhs),rhsMax =  -3.03923552991137E-15  5.30467140502702E-01
 cg2d: Sum(rhs),rhsMax =  -1.38722366926913E-13  5.30553225879197E-01
 cg2d: Sum(rhs),rhsMax =  -1.56263890715991E-14  5.30645452964355E-01
 cg2d: Sum(rhs),rhsMax =  -2.28525531831281E-13  5.30744858422886E-01
 cg2d: Sum(rhs),rhsMax =   2.97192825904347E-13  5.30851464714867E-01
 cg2d: Sum(rhs),rhsMax =  -8.49320613838245E-14  5.30965028831863E-01
 cg2d: Sum(rhs),rhsMax =  -2.80192535839774E-14  5.31085296208984E-01
 cg2d: Sum(rhs),rhsMax =   4.22439860869872E-13  5.31211891005478E-01
 cg2d: Sum(rhs),rhsMax =   6.77236045021345E-15  5.31344280157974E-01
 cg2d: Sum(rhs),rhsMax =  -1.06387121334706E-13  5.31481718015873E-01
 cg2d: Sum(rhs),rhsMax =  -3.18078896555107E-14  5.31623336561925E-01
 cg2d: Sum(rhs),rhsMax =   3.84831055910695E-14  5.31768160997310E-01
 cg2d: Sum(rhs),rhsMax =  -2.02490801903821E-13  5.31914621284158E-01
 cg2d: Sum(rhs),rhsMax =  -4.41313652288500E-15  5.32060964021492E-01
 cg2d: Sum(rhs),rhsMax =  -7.73825448163734E-14  5.32206351905929E-01
 cg2d: Sum(rhs),rhsMax =   2.92266211232572E-13  5.32350001173496E-01
 cg2d: Sum(rhs),rhsMax =   6.52256026967279E-15  5.32491143476209E-01
 cg2d: Sum(rhs),rhsMax =  -1.06969988422634E-13  5.32629089966438E-01
 cg2d: Sum(rhs),rhsMax =   1.01585406753202E-13  5.32763305258562E-01
 cg2d: Sum(rhs),rhsMax =  -3.54036244765155E-13  5.32893145403733E-01
 cg2d: Sum(rhs),rhsMax =  -7.65359997600967E-14  5.33017491194230E-01
 cg2d: Sum(rhs),rhsMax =   1.44620426745234E-13  5.33134964751329E-01
 cg2d: Sum(rhs),rhsMax =   2.16840434497101E-13  5.33245046956075E-01
 cg2d: Sum(rhs),rhsMax =   3.33677530051091E-13  5.33347417291214E-01
 cg2d: Sum(rhs),rhsMax =  -2.31981100995426E-13  5.33441909138532E-01
 cg2d: Sum(rhs),rhsMax =   4.43256542581594E-14  5.33528557030204E-01
 cg2d: Sum(rhs),rhsMax =   2.16562878740945E-13  5.33607627759594E-01
 cg2d: Sum(rhs),rhsMax =  -2.35048092100953E-13  5.33679370213544E-01
 cg2d: Sum(rhs),rhsMax =   1.18280385486003E-13  5.33744269343035E-01
 cg2d: Sum(rhs),rhsMax =   3.09988146263152E-13  5.33802960879737E-01
 cg2d: Sum(rhs),rhsMax =  -4.95437024738976E-14  5.33856203567108E-01
 cg2d: Sum(rhs),rhsMax =  -3.11639603012281E-13  5.33904826085188E-01
 cg2d: Sum(rhs),rhsMax =  -1.40165656858926E-14  5.33949902040817E-01
 cg2d: Sum(rhs),rhsMax =   2.92557644776537E-13  5.33992726958806E-01
 cg2d: Sum(rhs),rhsMax =  -8.55981951985996E-14  5.34034117340689E-01
 cg2d: Sum(rhs),rhsMax =  -1.86808901680990E-13  5.34074985436886E-01
 cg2d: Sum(rhs),rhsMax =  -1.50685020017249E-13  5.34115400865050E-01
 cg2d: Sum(rhs),rhsMax =   2.12801998245027E-13  5.34154791945805E-01
 cg2d: Sum(rhs),rhsMax =  -8.67916849500716E-14  5.34196033175734E-01
 cg2d: Sum(rhs),rhsMax =   2.27817764653082E-13  5.34239811452994E-01
 cg2d: Sum(rhs),rhsMax =  -1.91971438745497E-13  5.34286692667364E-01
 cg2d: Sum(rhs),rhsMax =  -6.65023591750469E-14  5.34337166234471E-01
 cg2d: Sum(rhs),rhsMax =   1.89043225518049E-13  5.34392209679179E-01
 cg2d: Sum(rhs),rhsMax =  -3.92602617083071E-14  5.34451943473611E-01
 cg2d: Sum(rhs),rhsMax =  -1.91485716172224E-13  5.34516354898272E-01
 cg2d: Sum(rhs),rhsMax =  -1.30076505122645E-13  5.34585357034290E-01
 cg2d: Sum(rhs),rhsMax =   1.48894785390041E-13  5.34658795218416E-01
 cg2d: Sum(rhs),rhsMax =   3.84692278032617E-14  5.34736362185348E-01
 cg2d: Sum(rhs),rhsMax =   7.34690086545697E-14  5.34817665295834E-01
 cg2d: Sum(rhs),rhsMax =  -1.19418364086243E-13  5.34902165233616E-01
 cg2d: Sum(rhs),rhsMax =  -5.06122921350993E-14  5.34989321966532E-01
 cg2d: Sum(rhs),rhsMax =   2.62706523201928E-13  5.35076964276515E-01
 cg2d: Sum(rhs),rhsMax =  -3.33622018899860E-14  5.35164609596327E-01
 cg2d: Sum(rhs),rhsMax =  -1.02487462960710E-13  5.35251901758899E-01
 cg2d: Sum(rhs),rhsMax =   2.87075918592450E-13  5.35338614093578E-01
 cg2d: Sum(rhs),rhsMax =   4.82947015711943E-13  5.35425182464834E-01
 cg2d: Sum(rhs),rhsMax =  -1.36016198304389E-13  5.35510616063845E-01
 cg2d: Sum(rhs),rhsMax =  -4.06480404890885E-14  5.35594395292639E-01
 cg2d: Sum(rhs),rhsMax =  -1.09509623591464E-13  5.35676392483568E-01
 cg2d: Sum(rhs),rhsMax =  -2.42778019909906E-13  5.35756502022418E-01
 cg2d: Sum(rhs),rhsMax =   2.12330153459561E-15  5.35834213236455E-01
 cg2d: Sum(rhs),rhsMax =   1.70974345792274E-14  5.35908118755107E-01
 cg2d: Sum(rhs),rhsMax =   3.88716836496883E-14  5.35978067170825E-01
 cg2d: Sum(rhs),rhsMax =   3.48748807610377E-14  5.36043468912277E-01
 cg2d: Sum(rhs),rhsMax =   4.53248549803220E-14  5.36105033311127E-01
 cg2d: Sum(rhs),rhsMax =   2.47454834401140E-13  5.36163031121998E-01
 cg2d: Sum(rhs),rhsMax =   2.25416907362330E-13  5.36217802316824E-01
 cg2d: Sum(rhs),rhsMax =  -1.59941504485062E-13  5.36269788296397E-01
 cg2d: Sum(rhs),rhsMax =   6.43374242770278E-14  5.36319502660414E-01
 cg2d: Sum(rhs),rhsMax =   4.59215998560580E-14  5.36367545889605E-01
 cg2d: Sum(rhs),rhsMax =   1.14713794019394E-13  5.36414608833766E-01
 cg2d: Sum(rhs),rhsMax =   1.69780856040802E-13  5.36461512312771E-01
 cg2d: Sum(rhs),rhsMax =  -1.75956471615279E-13  5.36509033258787E-01
 cg2d: Sum(rhs),rhsMax =   3.43891581877642E-14  5.36557766741495E-01
 cg2d: Sum(rhs),rhsMax =   4.99322805325164E-14  5.36608236766324E-01
 cg2d: Sum(rhs),rhsMax =   7.99360577730113E-15  5.36660897626556E-01
 cg2d: Sum(rhs),rhsMax =   1.04014019619569E-13  5.36716139546637E-01
 cg2d: Sum(rhs),rhsMax =   1.05901398761432E-13  5.36774241384043E-01
 cg2d: Sum(rhs),rhsMax =   6.57807142090405E-14  5.36835235276178E-01
 cg2d: Sum(rhs),rhsMax =   1.29354860156639E-13  5.36899424092263E-01
 cg2d: Sum(rhs),rhsMax =  -1.17572618307804E-13  5.36966818587522E-01
 cg2d: Sum(rhs),rhsMax =   3.01050850914919E-13  5.37037629463037E-01
 cg2d: Sum(rhs),rhsMax =   2.22197260590917E-13  5.37111786590029E-01
 cg2d: Sum(rhs),rhsMax =   1.74887881954078E-13  5.37189016765778E-01
 cg2d: Sum(rhs),rhsMax =   1.28480559524746E-13  5.37268961499818E-01
 cg2d: Sum(rhs),rhsMax =   3.49303919122690E-14  5.37351052282156E-01
 cg2d: Sum(rhs),rhsMax =   6.55170362406921E-14  5.37434908806814E-01
 cg2d: Sum(rhs),rhsMax =  -1.20320420293751E-14  5.37520050904633E-01
 cg2d: Sum(rhs),rhsMax =  -1.78745906964650E-14  5.37605858692254E-01
 cg2d: Sum(rhs),rhsMax =   4.14529521819418E-14  5.37691106405546E-01
 cg2d: Sum(rhs),rhsMax =   1.23498433701741E-13  5.37774156325444E-01
 cg2d: Sum(rhs),rhsMax =   6.65995036897016E-14  5.37854484921255E-01
 cg2d: Sum(rhs),rhsMax =   3.46361828107433E-13  5.37931881650084E-01
 cg2d: Sum(rhs),rhsMax =   1.11952114245639E-13  5.38006167699581E-01
 cg2d: Sum(rhs),rhsMax =  -2.77874945275869E-13  5.38077113645928E-01
 cg2d: Sum(rhs),rhsMax =  -6.93611834634567E-14  5.38144505532299E-01
 cg2d: Sum(rhs),rhsMax =   1.40387701463851E-13  5.38208282116656E-01
 cg2d: Sum(rhs),rhsMax =   2.03961847411449E-13  5.38268554324603E-01
 cg2d: Sum(rhs),rhsMax =   2.99274494075519E-13  5.38325415654938E-01
 cg2d: Sum(rhs),rhsMax =   1.98827065922558E-13  5.38379057631677E-01
 cg2d: Sum(rhs),rhsMax =   1.47687417850761E-13  5.38428454598273E-01
 cg2d: Sum(rhs),rhsMax =  -1.82812098792340E-13  5.38473730660941E-01
 cg2d: Sum(rhs),rhsMax =   1.47673540062954E-13  5.38513982163064E-01
 cg2d: Sum(rhs),rhsMax =  -3.81639164714898E-15  5.38550723515290E-01
 cg2d: Sum(rhs),rhsMax =   2.89032686673352E-13  5.38583810253904E-01
 cg2d: Sum(rhs),rhsMax =   1.86017867775945E-13  5.38613935647927E-01
 cg2d: Sum(rhs),rhsMax =  -1.76705872156901E-13  5.38641729518744E-01
 cg2d: Sum(rhs),rhsMax =   2.51784704197178E-13  5.38667805855701E-01
 cg2d: Sum(rhs),rhsMax =  -1.63119517893051E-13  5.38693354602759E-01
 cg2d: Sum(rhs),rhsMax =  -1.51156864802715E-13  5.38718786123813E-01
 cg2d: Sum(rhs),rhsMax =  -3.79710152209611E-13  5.38744669461874E-01
 cg2d: Sum(rhs),rhsMax =  -9.85878045867139E-14  5.38771685650656E-01
 cg2d: Sum(rhs),rhsMax =  -9.05386876581815E-14  5.38800295471542E-01
 cg2d: Sum(rhs),rhsMax =  -7.11791736662803E-14  5.38830931624323E-01
 cg2d: Sum(rhs),rhsMax =   1.28855259795557E-13  5.38863947054030E-01
 cg2d: Sum(rhs),rhsMax =   5.09731146181025E-14  5.38899628231794E-01
 cg2d: Sum(rhs),rhsMax =  -2.42195152821978E-13  5.38938105882540E-01
 cg2d: Sum(rhs),rhsMax =   5.87446757904786E-14  5.38979501204974E-01
 cg2d: Sum(rhs),rhsMax =   6.37823127647152E-14  5.39024082064238E-01
 cg2d: Sum(rhs),rhsMax =   1.68393077260021E-13  5.39071786787852E-01
 cg2d: Sum(rhs),rhsMax =   1.00613961606655E-14  5.39122558262208E-01
 cg2d: Sum(rhs),rhsMax =   1.92651450348080E-13  5.39175975327673E-01
 cg2d: Sum(rhs),rhsMax =  -4.03010957938932E-14  5.39231627742511E-01
 cg2d: Sum(rhs),rhsMax =   1.42177936091059E-13  5.39289094352805E-01
 cg2d: Sum(rhs),rhsMax =   1.80008785655161E-13  5.39348339580401E-01
 cg2d: Sum(rhs),rhsMax =   4.48113768314329E-14  5.39408179173721E-01
 cg2d: Sum(rhs),rhsMax =   2.60874655211296E-13  5.39468089580324E-01
 cg2d: Sum(rhs),rhsMax =   1.60108037938755E-13  5.39527558273977E-01
 cg2d: Sum(rhs),rhsMax =   1.72736824843867E-13  5.39585471442327E-01
 cg2d: Sum(rhs),rhsMax =   5.74401637365440E-14  5.39640603449275E-01
 cg2d: Sum(rhs),rhsMax =  -8.82766082455078E-14  5.39692651876107E-01
 cg2d: Sum(rhs),rhsMax =   1.29243837854176E-13  5.39741236301611E-01
 cg2d: Sum(rhs),rhsMax =  -1.41706091305593E-13  5.39787228814329E-01
 cg2d: Sum(rhs),rhsMax =   2.30260255307257E-13  5.39827331262607E-01
 cg2d: Sum(rhs),rhsMax =   6.66827704165485E-14  5.39864547688861E-01
 cg2d: Sum(rhs),rhsMax =   1.35766398123849E-13  5.39897379884462E-01
 cg2d: Sum(rhs),rhsMax =   8.32667268468867E-15  5.39926345612657E-01
 cg2d: Sum(rhs),rhsMax =   5.08620923156400E-14  5.39952061268710E-01
 cg2d: Sum(rhs),rhsMax =   5.14588371913760E-14  5.39972769029855E-01
 cg2d: Sum(rhs),rhsMax =  -4.66293670342566E-15  5.39988578262970E-01
 cg2d: Sum(rhs),rhsMax =  -3.66789931760536E-14  5.39999893082118E-01
 cg2d: Sum(rhs),rhsMax =  -1.13450915328883E-13  5.40007160268435E-01
 cg2d: Sum(rhs),rhsMax =  -6.76264599874798E-14  5.40010908170347E-01
 cg2d: Sum(rhs),rhsMax =  -3.28764793167124E-14  5.40011568057011E-01
 cg2d: Sum(rhs),rhsMax =  -1.00697228333502E-13  5.40009950495835E-01
 cg2d: Sum(rhs),rhsMax =  -3.20840576328862E-13  5.39870981127527E-01
 cg2d: Sum(rhs),rhsMax =  -4.52277104656673E-14  5.39729950744545E-01
 cg2d: Sum(rhs),rhsMax =  -3.34593464046407E-14  5.39591438794640E-01
 cg2d: Sum(rhs),rhsMax =  -1.10397802011164E-13  5.39454849859873E-01
 cg2d: Sum(rhs),rhsMax =   2.75862666043736E-13  5.39321452403163E-01
 cg2d: Sum(rhs),rhsMax =  -1.95912730482917E-13  5.39191773953525E-01
 cg2d: Sum(rhs),rhsMax =  -5.07927033766009E-14  5.39066391448750E-01
 cg2d: Sum(rhs),rhsMax =   1.35336186701807E-13  5.38945700430886E-01
 cg2d: Sum(rhs),rhsMax =  -1.71099245882544E-13  5.38830002362521E-01
 cg2d: Sum(rhs),rhsMax =   2.75182654441153E-13  5.38719615170456E-01
 cg2d: Sum(rhs),rhsMax =  -4.31599200823030E-15  5.38614576231708E-01
 cg2d: Sum(rhs),rhsMax =  -4.78506123613442E-14  5.38514784042486E-01
 cg2d: Sum(rhs),rhsMax =  -1.75831571525009E-14  5.38419996807132E-01
 cg2d: Sum(rhs),rhsMax =   8.88178419700125E-14  5.38329863710799E-01
 cg2d: Sum(rhs),rhsMax =   1.06858966120171E-14  5.38243915408991E-01
 cg2d: Sum(rhs),rhsMax =   2.26096918964913E-13  5.38163691814703E-01
 cg2d: Sum(rhs),rhsMax =  -2.08083550390370E-13  5.38086421179704E-01
 cg2d: Sum(rhs),rhsMax =  -2.50771625687207E-14  5.38011399204594E-01
 cg2d: Sum(rhs),rhsMax =   7.73825448163734E-14  5.37937909428199E-01
 cg2d: Sum(rhs),rhsMax =  -8.35026492396196E-14  5.37865188620429E-01
 cg2d: Sum(rhs),rhsMax =   1.79370407416002E-13  5.37792546193638E-01
 cg2d: Sum(rhs),rhsMax =  -1.03486663682872E-13  5.37719192197409E-01
 cg2d: Sum(rhs),rhsMax =  -1.21291865440298E-14  5.37643719496857E-01
 cg2d: Sum(rhs),rhsMax =  -1.86378690258948E-14  5.37565605922566E-01
 cg2d: Sum(rhs),rhsMax =  -2.83328915884340E-13  5.37484550753716E-01
 cg2d: Sum(rhs),rhsMax =   1.99840144432528E-14  5.37400365295136E-01
 cg2d: Sum(rhs),rhsMax =   9.58677581763823E-14  5.37312957643778E-01
 cg2d: Sum(rhs),rhsMax =  -2.56239474083486E-13  5.37222286541390E-01
 cg2d: Sum(rhs),rhsMax =  -3.26960680752109E-14  5.37128452406311E-01
 cg2d: Sum(rhs),rhsMax =  -1.71682112970473E-13  5.37031329823037E-01
 cg2d: Sum(rhs),rhsMax =  -4.91967577787022E-14  5.36930434254872E-01
 cg2d: Sum(rhs),rhsMax =   4.03704847329323E-14  5.36826000338852E-01
 cg2d: Sum(rhs),rhsMax =  -2.93653990013354E-14  5.36718375691304E-01
 cg2d: Sum(rhs),rhsMax =   9.88098491916389E-14  5.36607999063529E-01
 cg2d: Sum(rhs),rhsMax =   7.15122405736679E-14  5.36495414615143E-01
 cg2d: Sum(rhs),rhsMax =   1.99770755493489E-13  5.36381292446805E-01
 cg2d: Sum(rhs),rhsMax =   7.87009346581158E-14  5.36266315735490E-01
 cg2d: Sum(rhs),rhsMax =  -3.62349039662035E-14  5.36151107459493E-01
 cg2d: Sum(rhs),rhsMax =   5.88001869417099E-14  5.36036395221383E-01
 cg2d: Sum(rhs),rhsMax =   4.40480985020031E-14  5.35922353120766E-01
 cg2d: Sum(rhs),rhsMax =  -3.67483821150927E-14  5.35811177037910E-01
 cg2d: Sum(rhs),rhsMax =  -1.11896603094408E-13  5.35702412145766E-01
 cg2d: Sum(rhs),rhsMax =   1.38486444534180E-13  5.35596527055909E-01
 cg2d: Sum(rhs),rhsMax =   1.80119807957624E-13  5.35493810005039E-01
 cg2d: Sum(rhs),rhsMax =  -1.69642078162724E-13  5.35394792557755E-01
 cg2d: Sum(rhs),rhsMax =   4.15639744844043E-14  5.35299652113475E-01
 cg2d: Sum(rhs),rhsMax =  -2.65565347490337E-13  5.35208471249562E-01
 cg2d: Sum(rhs),rhsMax =  -5.64409630143814E-14  5.35121207523024E-01
 cg2d: Sum(rhs),rhsMax =  -2.34257058195908E-13  5.35037792703321E-01
 cg2d: Sum(rhs),rhsMax =   2.70339306496226E-13  5.34958170706706E-01
 cg2d: Sum(rhs),rhsMax =  -5.59247093079307E-13  5.34881968715011E-01
 cg2d: Sum(rhs),rhsMax =  -3.35981242827188E-14  5.34808750765321E-01
 cg2d: Sum(rhs),rhsMax =   6.08818551128820E-14  5.34737988675261E-01
 cg2d: Sum(rhs),rhsMax =   5.26523269428480E-14  5.34669064580948E-01
 cg2d: Sum(rhs),rhsMax =   2.22308282893380E-13  5.34601314294249E-01
 cg2d: Sum(rhs),rhsMax =   2.63955524104631E-13  5.34534014019610E-01
 cg2d: Sum(rhs),rhsMax =   3.92810783900188E-13  5.34466428896725E-01
 cg2d: Sum(rhs),rhsMax =  -6.32410790402105E-14  5.34397549321831E-01
 cg2d: Sum(rhs),rhsMax =   6.22835116814713E-14  5.34326440872684E-01
 cg2d: Sum(rhs),rhsMax =   1.42538758574062E-13  5.34251661948285E-01
 cg2d: Sum(rhs),rhsMax =   7.10681513638178E-14  5.34173103974659E-01
 cg2d: Sum(rhs),rhsMax =   6.93611834634567E-14  5.34090409151213E-01
 cg2d: Sum(rhs),rhsMax =  -1.90306104208560E-13  5.34003378067616E-01
 cg2d: Sum(rhs),rhsMax =  -1.30812027876459E-13  5.33932465132556E-01
 cg2d: Sum(rhs),rhsMax =   2.53727594490272E-13  5.33865921510501E-01
 cg2d: Sum(rhs),rhsMax =  -2.02407535176974E-13  5.33794743122792E-01
 cg2d: Sum(rhs),rhsMax =   1.59566804214251E-13  5.33718943637481E-01
 cg2d: Sum(rhs),rhsMax =  -2.45345410654352E-13  5.33638649297300E-01
 cg2d: Sum(rhs),rhsMax =   3.19383408609042E-13  5.33553377703527E-01
 cg2d: Sum(rhs),rhsMax =   2.51465515077598E-14  5.33463044702442E-01
 cg2d: Sum(rhs),rhsMax =   1.13409281965460E-13  5.33368047492163E-01
 cg2d: Sum(rhs),rhsMax =   1.29923849456759E-13  5.33268903475114E-01
 cg2d: Sum(rhs),rhsMax =  -5.88834536685567E-14  5.33166223886498E-01
 cg2d: Sum(rhs),rhsMax =  -1.07205910815367E-13  5.33060711316943E-01
 cg2d: Sum(rhs),rhsMax =   7.85899123556533E-14  5.32953131163301E-01
 cg2d: Sum(rhs),rhsMax =   2.84161583152809E-13  5.32844292214050E-01
 cg2d: Sum(rhs),rhsMax =   8.13238365537927E-15  5.32735210887750E-01
 cg2d: Sum(rhs),rhsMax =   9.45216127590243E-14  5.32626864233899E-01
 cg2d: Sum(rhs),rhsMax =   1.35613742457963E-13  5.32519987647385E-01
 cg2d: Sum(rhs),rhsMax =  -3.08642000845794E-14  5.32415276359600E-01
 cg2d: Sum(rhs),rhsMax =  -2.95083402157559E-13  5.32313352789231E-01
 cg2d: Sum(rhs),rhsMax =  -1.95968241634148E-13  5.32214745002983E-01
 cg2d: Sum(rhs),rhsMax =   2.17229012555720E-13  5.32119891395191E-01
 cg2d: Sum(rhs),rhsMax =   3.02369240756661E-13  5.32029115925504E-01
 cg2d: Sum(rhs),rhsMax =  -3.11820014253783E-13  5.31942623910620E-01
 cg2d: Sum(rhs),rhsMax =   1.69059211074796E-13  5.31860492533903E-01
 cg2d: Sum(rhs),rhsMax =   5.78426195829707E-14  5.31782677170153E-01
 cg2d: Sum(rhs),rhsMax =  -4.97796248666305E-14  5.31709124540007E-01
 cg2d: Sum(rhs),rhsMax =   1.26995636229310E-13  5.31639821867049E-01
 cg2d: Sum(rhs),rhsMax =  -1.56638590986802E-13  5.31574390811472E-01
 cg2d: Sum(rhs),rhsMax =  -3.56201179663174E-13  5.31512327469181E-01
 cg2d: Sum(rhs),rhsMax =   7.33441085642994E-14  5.31453045301009E-01
 cg2d: Sum(rhs),rhsMax =   1.61565205658576E-13  5.31395897521202E-01
 cg2d: Sum(rhs),rhsMax =  -2.31759056390501E-14  5.31340112605202E-01
 cg2d: Sum(rhs),rhsMax =  -1.50601753290402E-13  5.31284915936806E-01
 cg2d: Sum(rhs),rhsMax =  -1.48547840694846E-13  5.31228196930063E-01
 cg2d: Sum(rhs),rhsMax =  -1.12271303365219E-13  5.31169325967678E-01
 cg2d: Sum(rhs),rhsMax =   9.90596493721796E-14  5.31107768644440E-01
 cg2d: Sum(rhs),rhsMax =   8.47100167788994E-14  5.31043120882473E-01
 cg2d: Sum(rhs),rhsMax =   2.15188977747971E-13  5.30975027490691E-01
 cg2d: Sum(rhs),rhsMax =  -9.45077349712165E-14  5.30903116923248E-01
 cg2d: Sum(rhs),rhsMax =   9.33697563709757E-14  5.30827094051739E-01
 cg2d: Sum(rhs),rhsMax =   2.12108108854636E-13  5.30746802441050E-01
 cg2d: Sum(rhs),rhsMax =  -7.09848846369709E-14  5.30662156486112E-01
 cg2d: Sum(rhs),rhsMax =   4.46309655899313E-14  5.30573329932605E-01
 cg2d: Sum(rhs),rhsMax =   2.14592232872235E-13  5.30480604316291E-01
 cg2d: Sum(rhs),rhsMax =  -2.21211937656562E-14  5.30384012130431E-01
 cg2d: Sum(rhs),rhsMax =  -5.75373082511987E-14  5.30282692136826E-01
 cg2d: Sum(rhs),rhsMax =   1.42622025300909E-13  5.30176996682844E-01
 cg2d: Sum(rhs),rhsMax =   6.78901379558283E-14  5.30067393831902E-01
 cg2d: Sum(rhs),rhsMax =  -8.06577027390176E-14  5.29954459205667E-01
 cg2d: Sum(rhs),rhsMax =   3.99402733108900E-14  5.29838833279645E-01
 cg2d: Sum(rhs),rhsMax =  -1.39055433834301E-14  5.29721226034718E-01
 cg2d: Sum(rhs),rhsMax =   5.44564393578639E-14  5.29602404343637E-01
 cg2d: Sum(rhs),rhsMax =   3.38173933300823E-13  5.29483175071349E-01
 cg2d: Sum(rhs),rhsMax =  -2.19560480907433E-13  5.29364596247419E-01
 cg2d: Sum(rhs),rhsMax =  -2.33521535442094E-13  5.29247349456900E-01
 cg2d: Sum(rhs),rhsMax =   6.25749452254354E-14  5.29132128927055E-01
 cg2d: Sum(rhs),rhsMax =   1.66477942542542E-13  5.29019518527947E-01
 cg2d: Sum(rhs),rhsMax =   1.27675647831893E-15  5.28910079316296E-01
 cg2d: Sum(rhs),rhsMax =   1.43926537354844E-13  5.28804234353906E-01
 cg2d: Sum(rhs),rhsMax =   2.41751063612128E-13  5.28702353194182E-01
 cg2d: Sum(rhs),rhsMax =   4.46725989533547E-14  5.28604674037593E-01
 cg2d: Sum(rhs),rhsMax =   9.89902604331405E-14  5.28511336484900E-01
 cg2d: Sum(rhs),rhsMax =   1.33587585438022E-13  5.28422507832754E-01
 cg2d: Sum(rhs),rhsMax =   5.44148059944405E-14  5.28338300276641E-01
 cg2d: Sum(rhs),rhsMax =  -1.35100264309074E-13  5.28258556717340E-01
 cg2d: Sum(rhs),rhsMax =   9.86849491013686E-14  5.28182954310505E-01
 cg2d: Sum(rhs),rhsMax =   6.19504447740837E-14  5.28111036006842E-01
 cg2d: Sum(rhs),rhsMax =  -1.08441033930262E-13  5.28042237808359E-01
 cg2d: Sum(rhs),rhsMax =   1.54182222544819E-13  5.27976123540579E-01
 cg2d: Sum(rhs),rhsMax =  -3.42226247340705E-14  5.27912009885592E-01
 cg2d: Sum(rhs),rhsMax =   1.62536650805123E-13  5.27849135479834E-01
 cg2d: Sum(rhs),rhsMax =   3.67345043272849E-14  5.27785563619518E-01
 cg2d: Sum(rhs),rhsMax =   1.84990911478167E-14  5.27720950804945E-01
 cg2d: Sum(rhs),rhsMax =   1.25816024265646E-13  5.27654722317470E-01
 cg2d: Sum(rhs),rhsMax =   1.23928645123783E-13  5.27586807574202E-01
 cg2d: Sum(rhs),rhsMax =   1.24539267787327E-13  5.27516627391361E-01
 cg2d: Sum(rhs),rhsMax =  -1.22096777133152E-13  5.27444034087971E-01
 cg2d: Sum(rhs),rhsMax =   3.47361028829596E-14  5.27368605113516E-01
 cg2d: Sum(rhs),rhsMax =   3.80251385934116E-15  5.27290386585162E-01
 cg2d: Sum(rhs),rhsMax =  -8.99835761458689E-14  5.27209123107981E-01
 cg2d: Sum(rhs),rhsMax =  -1.19085297178856E-13  5.27125073838230E-01
 cg2d: Sum(rhs),rhsMax =   6.43790576404513E-14  5.27038474279172E-01
 cg2d: Sum(rhs),rhsMax =   1.31436528327811E-13  5.26949027859589E-01
 cg2d: Sum(rhs),rhsMax =  -1.12951314967802E-13  5.26856024174189E-01
 cg2d: Sum(rhs),rhsMax =  -8.02136135291676E-14  5.26759956868352E-01
 cg2d: Sum(rhs),rhsMax =  -2.04752881316494E-13  5.26661041319897E-01
 cg2d: Sum(rhs),rhsMax =   1.33365540833097E-13  5.26559958003135E-01
 cg2d: Sum(rhs),rhsMax =  -1.22887811038197E-13  5.26457106526265E-01
 cg2d: Sum(rhs),rhsMax =   5.01473862435375E-13  5.26353308767063E-01
 cg2d: Sum(rhs),rhsMax =   3.83582055007992E-14  5.26249032335125E-01
 cg2d: Sum(rhs),rhsMax =  -2.49522624784504E-14  5.26145436717883E-01
 cg2d: Sum(rhs),rhsMax =  -1.04985464766116E-13  5.26043066581108E-01
 cg2d: Sum(rhs),rhsMax =   3.23296944770846E-13  5.25942712145472E-01
 cg2d: Sum(rhs),rhsMax =  -2.34812169708221E-14  5.25844859923419E-01
 cg2d: Sum(rhs),rhsMax =   2.14370188267310E-13  5.25750173728418E-01
 cg2d: Sum(rhs),rhsMax =  -6.90836277073004E-14  5.25658819292094E-01
 cg2d: Sum(rhs),rhsMax =   9.84629044964436E-14  5.25571169665036E-01
 cg2d: Sum(rhs),rhsMax =  -1.34947608643188E-13  5.25487393882307E-01
 cg2d: Sum(rhs),rhsMax =  -4.12447853648246E-14  5.25407805456715E-01
 cg2d: Sum(rhs),rhsMax =   1.96426208631806E-13  5.25332342728767E-01
 cg2d: Sum(rhs),rhsMax =   7.61474217014779E-14  5.25261171225668E-01
 cg2d: Sum(rhs),rhsMax =   7.36910532594948E-14  5.25194276388288E-01
 cg2d: Sum(rhs),rhsMax =   1.22540866343002E-13  5.25131419538263E-01
 cg2d: Sum(rhs),rhsMax =   1.57138191347883E-13  5.25072210026180E-01
 cg2d: Sum(rhs),rhsMax =   4.03566069451244E-14  5.25016157208540E-01
 cg2d: Sum(rhs),rhsMax =  -1.68934310984525E-13  5.24962711473327E-01
 cg2d: Sum(rhs),rhsMax =   1.95385374546220E-13  5.24911198340878E-01
 cg2d: Sum(rhs),rhsMax =  -1.63202784619898E-13  5.24860979477055E-01
 cg2d: Sum(rhs),rhsMax =   1.04569131131882E-13  5.24809859568394E-01
 cg2d: Sum(rhs),rhsMax =   9.94621052186062E-14  5.24757103434145E-01
 cg2d: Sum(rhs),rhsMax =   1.02279296143593E-13  5.24702444929429E-01
 cg2d: Sum(rhs),rhsMax =  -2.44151920902880E-13  5.24645446857891E-01
 cg2d: Sum(rhs),rhsMax =   4.13655221187526E-13  5.24585595397050E-01
 cg2d: Sum(rhs),rhsMax =  -2.23723817249777E-13  5.24522614147373E-01
 cg2d: Sum(rhs),rhsMax =   4.82391904199631E-14  5.24456221524162E-01
 cg2d: Sum(rhs),rhsMax =   4.84473572370803E-14  5.24386279524258E-01
 cg2d: Sum(rhs),rhsMax =   9.21762666195036E-14  5.24312692109493E-01
 cg2d: Sum(rhs),rhsMax =  -1.44689815684274E-13  5.24236628874930E-01
 cg2d: Sum(rhs),rhsMax =  -1.76164638432397E-13  5.24154523791005E-01
 cg2d: Sum(rhs),rhsMax =  -3.31332183911570E-13  5.24071507770490E-01
 cg2d: Sum(rhs),rhsMax =  -1.24178445304324E-13  5.23986351873226E-01
 cg2d: Sum(rhs),rhsMax =   1.37043154602168E-13  5.23895946574171E-01
 cg2d: Sum(rhs),rhsMax =  -7.18730630566711E-14  5.23804602304959E-01
 cg2d: Sum(rhs),rhsMax =   1.74818493015039E-13  5.23711181702336E-01
 cg2d: Sum(rhs),rhsMax =  -7.89784904142721E-14  5.23612979357253E-01
 cg2d: Sum(rhs),rhsMax =  -1.79023462720806E-13  5.23515642292956E-01
 cg2d: Sum(rhs),rhsMax =   3.03798652900866E-13  5.23418356256240E-01
 cg2d: Sum(rhs),rhsMax =   9.27868892830475E-14  5.23318917310540E-01
 cg2d: Sum(rhs),rhsMax =   5.35682609381638E-14  5.23222965828051E-01
 cg2d: Sum(rhs),rhsMax =  -2.87700419043802E-13  5.23129553226094E-01
 cg2d: Sum(rhs),rhsMax =   1.64590563400679E-14  5.23036386666081E-01
 cg2d: Sum(rhs),rhsMax =   4.26048085699904E-14  5.22948877024627E-01
 cg2d: Sum(rhs),rhsMax =   3.72937791759398E-13  5.22865715126136E-01
 cg2d: Sum(rhs),rhsMax =  -1.11799458579753E-13  5.22784176898922E-01
 cg2d: Sum(rhs),rhsMax =  -8.02968802560144E-14  5.22709196319912E-01
 cg2d: Sum(rhs),rhsMax =  -4.80865347540771E-14  5.22638102557370E-01
 cg2d: Sum(rhs),rhsMax =   5.55666623824891E-14  5.22571591014320E-01
 cg2d: Sum(rhs),rhsMax =  -2.16063278379863E-13  5.22510605013345E-01
 cg2d: Sum(rhs),rhsMax =  -9.20929998926567E-14  5.22451816426316E-01
 cg2d: Sum(rhs),rhsMax =   1.23803745033513E-13  5.22399431520837E-01
 cg2d: Sum(rhs),rhsMax =   1.98743799195711E-13  5.22350863402831E-01
 cg2d: Sum(rhs),rhsMax =   1.45813916496706E-13  5.22306416713035E-01
 cg2d: Sum(rhs),rhsMax =  -2.83939538547884E-14  5.22266255953522E-01
 cg2d: Sum(rhs),rhsMax =   5.00710584105946E-14  5.22226574077047E-01
 cg2d: Sum(rhs),rhsMax =   7.04575287002740E-14  5.22190797375879E-01
 cg2d: Sum(rhs),rhsMax =   1.55972457172027E-13  5.22156390723915E-01
 cg2d: Sum(rhs),rhsMax =   1.72792335995098E-13  5.22118596477360E-01
 cg2d: Sum(rhs),rhsMax =  -2.57016630200724E-14  5.22080695378396E-01
 cg2d: Sum(rhs),rhsMax =  -1.99798511069105E-13  5.22040643811738E-01
 cg2d: Sum(rhs),rhsMax =  -2.23349116978966E-13  5.21995345733518E-01
 cg2d: Sum(rhs),rhsMax =   1.21264109864683E-13  5.21948297965667E-01
 cg2d: Sum(rhs),rhsMax =  -3.13638004456607E-14  5.21907444275889E-01
 cg2d: Sum(rhs),rhsMax =   2.88380430646384E-14  5.21859958384745E-01
 cg2d: Sum(rhs),rhsMax =  -1.01793573570319E-13  5.21810636087900E-01
 cg2d: Sum(rhs),rhsMax =  -2.25305885059868E-13  5.21754213211601E-01
 cg2d: Sum(rhs),rhsMax =  -3.74977826567147E-14  5.21696494691304E-01
 cg2d: Sum(rhs),rhsMax =  -1.50879309046559E-13  5.21631771540707E-01
 cg2d: Sum(rhs),rhsMax =  -1.99368299647062E-13  5.21565893502424E-01
 cg2d: Sum(rhs),rhsMax =   1.14630527292547E-14  5.21493385045075E-01
 cg2d: Sum(rhs),rhsMax =   1.20126131264442E-13  5.21420328487057E-01
 cg2d: Sum(rhs),rhsMax =   2.05488404070309E-13  5.21342028561891E-01
 cg2d: Sum(rhs),rhsMax =  -2.13162820728030E-14  5.21260722215793E-01
 cg2d: Sum(rhs),rhsMax =   5.70654634657330E-14  5.21176219322950E-01
 cg2d: Sum(rhs),rhsMax =  -8.70137295549966E-15  5.21089319184794E-01
 cg2d: Sum(rhs),rhsMax =   1.06789577181132E-13  5.21000846506410E-01
 cg2d: Sum(rhs),rhsMax =   2.27887153592121E-13  5.20911757129167E-01
 cg2d: Sum(rhs),rhsMax =   1.71168634821584E-13  5.20823300343256E-01
 cg2d: Sum(rhs),rhsMax =   1.43302036903492E-13  5.20736510809551E-01
 cg2d: Sum(rhs),rhsMax =   1.37820310719405E-13  5.20652345783461E-01
 cg2d: Sum(rhs),rhsMax =   9.50628464835290E-14  5.20571457134619E-01
 cg2d: Sum(rhs),rhsMax =  -1.92762472650543E-13  5.20494408732268E-01
 cg2d: Sum(rhs),rhsMax =   6.67521593555875E-14  5.20420767758237E-01
 cg2d: Sum(rhs),rhsMax =  -1.89404048001052E-13  5.20354209478906E-01
 cg2d: Sum(rhs),rhsMax =   8.14209810684474E-14  5.20289635015691E-01
 cg2d: Sum(rhs),rhsMax =   1.45036760379469E-13  5.20233066000413E-01
 cg2d: Sum(rhs),rhsMax =   9.13852327144582E-14  5.20178798088280E-01
 cg2d: Sum(rhs),rhsMax =   2.24903429213441E-13  5.20131754505990E-01
 cg2d: Sum(rhs),rhsMax =   9.35362898246694E-14  5.20090136404463E-01
 cg2d: Sum(rhs),rhsMax =   6.92779167366098E-14  5.20051221260836E-01
 cg2d: Sum(rhs),rhsMax =  -2.67980082568897E-14  5.20019480175049E-01
 cg2d: Sum(rhs),rhsMax =   1.40581990493160E-13  5.19992549856853E-01
 cg2d: Sum(rhs),rhsMax =  -2.39766539955610E-13  5.19966867723045E-01
 cg2d: Sum(rhs),rhsMax =   1.60635393875452E-13  5.19946516819718E-01
 cg2d: Sum(rhs),rhsMax =  -9.71028812912778E-14  5.19928911807914E-01
 cg2d: Sum(rhs),rhsMax =  -1.55805923718333E-13  5.19910230510301E-01
 cg2d: Sum(rhs),rhsMax =   1.80258585835702E-13  5.19893662454413E-01
 cg2d: Sum(rhs),rhsMax =  -1.83006387821649E-13  5.19875828225898E-01
 cg2d: Sum(rhs),rhsMax =   9.73804370474340E-14  5.19853281005979E-01
 cg2d: Sum(rhs),rhsMax =   2.10303996439620E-13  5.19830270286197E-01
 cg2d: Sum(rhs),rhsMax =   4.13419298794793E-14  5.19803633166256E-01
 cg2d: Sum(rhs),rhsMax =   2.09401940232112E-13  5.19770065425840E-01
 cg2d: Sum(rhs),rhsMax =   2.63733479499706E-13  5.19734417046596E-01
 cg2d: Sum(rhs),rhsMax =  -1.21569421196455E-13  5.19694888739925E-01
 cg2d: Sum(rhs),rhsMax =  -1.67921232474555E-13  5.19648660087527E-01
 cg2d: Sum(rhs),rhsMax =   1.36599065392318E-13  5.19600782761652E-01
 cg2d: Sum(rhs),rhsMax =   5.10286257693338E-14  5.19549141867926E-01
 cg2d: Sum(rhs),rhsMax =   1.43454692569378E-13  5.19490680043883E-01
 cg2d: Sum(rhs),rhsMax =  -2.65745758731839E-13  5.19431599694384E-01
 cg2d: Sum(rhs),rhsMax =   7.37881977741495E-14  5.19365274604586E-01
 cg2d: Sum(rhs),rhsMax =   6.49202913649560E-14  5.19297602991173E-01
 cg2d: Sum(rhs),rhsMax =   1.09606768106119E-13  5.19223146442806E-01
 cg2d: Sum(rhs),rhsMax =   2.15105711021124E-15  5.19148663389574E-01
 cg2d: Sum(rhs),rhsMax =   3.23352455922077E-15  5.19068826518440E-01
 cg2d: Sum(rhs),rhsMax =  -2.17742490704609E-13  5.18990284884022E-01
 cg2d: Sum(rhs),rhsMax =  -1.28397292797899E-13  5.18907948619647E-01
 cg2d: Sum(rhs),rhsMax =  -1.94247395945979E-13  5.18829231221863E-01
 cg2d: Sum(rhs),rhsMax =   3.46320194744010E-13  5.18749205137820E-01
 cg2d: Sum(rhs),rhsMax =   5.90777426978661E-14  5.18674381306223E-01
 cg2d: Sum(rhs),rhsMax =   2.09693373776076E-14  5.18599636743916E-01
 cg2d: Sum(rhs),rhsMax =  -5.95218319077162E-14  5.18531327373568E-01
 cg2d: Sum(rhs),rhsMax =  -6.40043573696403E-14  5.18464203418256E-01
 cg2d: Sum(rhs),rhsMax =   1.78856929267113E-13  5.18404364177936E-01
 cg2d: Sum(rhs),rhsMax =  -2.21780926956683E-13  5.18346372368114E-01
 cg2d: Sum(rhs),rhsMax =   2.00825467366883E-13  5.18296136439623E-01
 cg2d: Sum(rhs),rhsMax =  -7.97972798949331E-15  5.18247945893563E-01
 cg2d: Sum(rhs),rhsMax =  -1.01682551267857E-13  5.18207540817624E-01
 cg2d: Sum(rhs),rhsMax =   1.66533453693773E-13  5.18169594924031E-01
 cg2d: Sum(rhs),rhsMax =   1.90222837481713E-13  5.18138788373231E-01
 cg2d: Sum(rhs),rhsMax =   2.36893837879393E-14  5.18113378552130E-01
 cg2d: Sum(rhs),rhsMax =   1.77774461818103E-14  5.18089718610063E-01
 cg2d: Sum(rhs),rhsMax =  -1.24275589818978E-13  5.18071926189358E-01
 cg2d: Sum(rhs),rhsMax =  -3.09141601206875E-13  5.18057886516370E-01
 cg2d: Sum(rhs),rhsMax =   5.95357096955240E-14  5.18043533649399E-01
 cg2d: Sum(rhs),rhsMax =   7.48845430109668E-14  5.18033107928044E-01
 cg2d: Sum(rhs),rhsMax =   1.43385303630339E-13  5.18022913036865E-01
 cg2d: Sum(rhs),rhsMax =  -1.45994327738208E-14  5.18009024108545E-01
 cg2d: Sum(rhs),rhsMax =  -3.57019969143835E-13  5.17996141432790E-01
 cg2d: Sum(rhs),rhsMax =  -1.97869498563819E-13  5.17982082739801E-01
 cg2d: Sum(rhs),rhsMax =  -2.22738494315422E-14  5.17962379697834E-01
 cg2d: Sum(rhs),rhsMax =   4.25354196309513E-14  5.17942511179249E-01
 cg2d: Sum(rhs),rhsMax =   2.40363284831346E-13  5.17920645146489E-01
 cg2d: Sum(rhs),rhsMax =   1.02640118626596E-13  5.17892685732836E-01
 cg2d: Sum(rhs),rhsMax =   2.11844430886288E-13  5.17865480266926E-01
 cg2d: Sum(rhs),rhsMax =  -1.58484336765241E-14  5.17831412300276E-01
 cg2d: Sum(rhs),rhsMax =  -1.69503300284646E-13  5.17790494611063E-01
 cg2d: Sum(rhs),rhsMax =   1.47992729182533E-13  5.17617893315978E-01
 cg2d: Sum(rhs),rhsMax =   5.74540415243519E-15  5.17444449810976E-01
 cg2d: Sum(rhs),rhsMax =   5.67046409827299E-14  5.17266071630728E-01
 cg2d: Sum(rhs),rhsMax =   4.00512956133525E-14  5.17089351145328E-01
 cg2d: Sum(rhs),rhsMax =   1.44106948596345E-13  5.16909463466530E-01
 cg2d: Sum(rhs),rhsMax =  -7.72437669382953E-14  5.16729968878884E-01
 cg2d: Sum(rhs),rhsMax =   1.09356967925578E-13  5.16550778025322E-01
 cg2d: Sum(rhs),rhsMax =  -1.44717571259889E-13  5.16372934560004E-01
 cg2d: Sum(rhs),rhsMax =  -1.09856568286659E-13  5.16197319627731E-01
 cg2d: Sum(rhs),rhsMax =  -2.12177497793675E-13  5.16024276800417E-01
 cg2d: Sum(rhs),rhsMax =   2.38267738872366E-13  5.15826387316824E-01
 cg2d: Sum(rhs),rhsMax =  -6.21308560155853E-14  5.15595424170124E-01
 cg2d: Sum(rhs),rhsMax =  -8.02552468925910E-14  5.15368277569046E-01
 cg2d: Sum(rhs),rhsMax =   1.31089583632615E-13  5.15145803253654E-01
 cg2d: Sum(rhs),rhsMax =   2.49689158238198E-13  5.14927654372969E-01
 cg2d: Sum(rhs),rhsMax =   7.38298311375729E-15  5.14713794468084E-01
 cg2d: Sum(rhs),rhsMax =   9.85878045867139E-14  5.14503979352972E-01
 cg2d: Sum(rhs),rhsMax =  -5.02237140764805E-14  5.14297926658470E-01
 cg2d: Sum(rhs),rhsMax =   2.06668016033973E-13  5.14095490692391E-01
 cg2d: Sum(rhs),rhsMax =   2.61832222570035E-13  5.13896171049947E-01
 cg2d: Sum(rhs),rhsMax =  -1.45994327738208E-14  5.13699812679883E-01
 cg2d: Sum(rhs),rhsMax =   4.61852778244065E-14  5.13505714936530E-01
 cg2d: Sum(rhs),rhsMax =   8.54177839570980E-14  5.13313085375229E-01
 cg2d: Sum(rhs),rhsMax =   2.92266211232572E-14  5.13121090860825E-01
 cg2d: Sum(rhs),rhsMax =   2.42375564063479E-13  5.12928870893898E-01
 cg2d: Sum(rhs),rhsMax =   3.80556697265888E-13  5.12735572490088E-01
 cg2d: Sum(rhs),rhsMax =   3.42226247340705E-14  5.12540349218362E-01
 cg2d: Sum(rhs),rhsMax =  -6.82787160144471E-14  5.12341430645664E-01
 cg2d: Sum(rhs),rhsMax =   1.26870736139040E-13  5.12137479548314E-01
 cg2d: Sum(rhs),rhsMax =   2.07750483482982E-13  5.11927982782273E-01
 cg2d: Sum(rhs),rhsMax =   1.97522553868623E-13  5.11712913007713E-01
 cg2d: Sum(rhs),rhsMax =  -1.77427517122908E-13  5.11492407852927E-01
 cg2d: Sum(rhs),rhsMax =  -2.26207941267376E-14  5.11266748349105E-01
 cg2d: Sum(rhs),rhsMax =  -2.40779618465581E-14  5.11036377570398E-01
 cg2d: Sum(rhs),rhsMax =  -4.26186863577982E-14  5.10801874022579E-01
 cg2d: Sum(rhs),rhsMax =   1.20847776230448E-13  5.10563936781639E-01
 cg2d: Sum(rhs),rhsMax =   9.48824352420274E-14  5.10322708221374E-01
 cg2d: Sum(rhs),rhsMax =  -3.75671715957537E-14  5.10078322701992E-01
 cg2d: Sum(rhs),rhsMax =  -1.36321509636161E-13  5.09830287584543E-01
 cg2d: Sum(rhs),rhsMax =   1.00502939304192E-13  5.09578960240430E-01
 cg2d: Sum(rhs),rhsMax =   4.34929869896905E-14  5.09325453771007E-01
 cg2d: Sum(rhs),rhsMax =  -1.83089654548496E-13  5.09070693278067E-01
 cg2d: Sum(rhs),rhsMax =   2.74447131687339E-13  5.08815557320683E-01
 cg2d: Sum(rhs),rhsMax =   1.36127220606852E-13  5.08561196977652E-01
 cg2d: Sum(rhs),rhsMax =   5.60246293801470E-14  5.08308870598675E-01
 cg2d: Sum(rhs),rhsMax =  -2.93834401254855E-13  5.08059395637069E-01
 cg2d: Sum(rhs),rhsMax =   2.57918686408232E-13  5.07813854691840E-01
 cg2d: Sum(rhs),rhsMax =   2.63761235075322E-13  5.07572854698087E-01
 cg2d: Sum(rhs),rhsMax =  -8.64724958304919E-14  5.07336928814983E-01
 cg2d: Sum(rhs),rhsMax =  -1.19806942144862E-13  5.07106359435281E-01
 cg2d: Sum(rhs),rhsMax =   4.34513536262671E-14  5.06881389652430E-01
 cg2d: Sum(rhs),rhsMax =   3.79321574150993E-13  5.06662099131466E-01
 cg2d: Sum(rhs),rhsMax =   1.66533453693773E-13  5.06448426348096E-01
 cg2d: Sum(rhs),rhsMax =   3.45556916414580E-14  5.06240151170478E-01
 cg2d: Sum(rhs),rhsMax =   6.84452494681409E-14  5.06036948612886E-01
 cg2d: Sum(rhs),rhsMax =   3.06740743916123E-13  5.05838573623641E-01
 cg2d: Sum(rhs),rhsMax =  -1.07830411266718E-14  5.05644636493978E-01
 cg2d: Sum(rhs),rhsMax =   3.44571593480225E-13  5.05454455426732E-01
 cg2d: Sum(rhs),rhsMax =  -2.28678187497167E-13  5.05267417595205E-01
 cg2d: Sum(rhs),rhsMax =  -2.11775041947249E-14  5.05083250113217E-01
 cg2d: Sum(rhs),rhsMax =   4.99461583203242E-14  5.04901107288539E-01
 cg2d: Sum(rhs),rhsMax =   4.69638217204249E-13  5.04720091051613E-01
 cg2d: Sum(rhs),rhsMax =   2.01783034725622E-14  5.04539269352004E-01
 cg2d: Sum(rhs),rhsMax =  -1.76095249493358E-13  5.04357785794864E-01
 cg2d: Sum(rhs),rhsMax =  -1.29951605032375E-13  5.04175054379068E-01
 cg2d: Sum(rhs),rhsMax =  -1.33226762955019E-14  5.03987897711938E-01
 cg2d: Sum(rhs),rhsMax =   1.34045552435680E-13  5.03795533484852E-01
 cg2d: Sum(rhs),rhsMax =  -3.74283937176756E-14  5.03597851620783E-01
 cg2d: Sum(rhs),rhsMax =   1.98480121227362E-13  5.03394876353464E-01
 cg2d: Sum(rhs),rhsMax =   1.03458908107257E-13  5.03186786900415E-01
 cg2d: Sum(rhs),rhsMax =  -3.57019969143835E-13  5.02971721720357E-01
 cg2d: Sum(rhs),rhsMax =   4.98351360178617E-14  5.02752383751084E-01
 cg2d: Sum(rhs),rhsMax =   9.24121890122365E-14  5.02529497736574E-01
 cg2d: Sum(rhs),rhsMax =  -1.04236064224494E-13  5.02303816216607E-01
 cg2d: Sum(rhs),rhsMax =   1.37667655053519E-14  5.02076215550502E-01
 cg2d: Sum(rhs),rhsMax =   3.33316707568088E-13  5.01847261672854E-01
 cg2d: Sum(rhs),rhsMax =   5.16670040084932E-14  5.01615028619182E-01
 cg2d: Sum(rhs),rhsMax =  -1.29063426612674E-15  5.01380091449400E-01
 cg2d: Sum(rhs),rhsMax =   1.70655156672694E-13  5.01143517348695E-01
 cg2d: Sum(rhs),rhsMax =   2.23626672735122E-13  5.00906322273766E-01
 cg2d: Sum(rhs),rhsMax =   7.78682673896469E-14  5.00669794764803E-01
 cg2d: Sum(rhs),rhsMax =   4.61408689034215E-13  5.00435068689338E-01
 cg2d: Sum(rhs),rhsMax =   2.62984078958084E-14  5.00202974255695E-01
 cg2d: Sum(rhs),rhsMax =  -1.44328993201270E-13  4.99974289100424E-01
 cg2d: Sum(rhs),rhsMax =   2.11816675310672E-13  4.99749716872202E-01
 cg2d: Sum(rhs),rhsMax =  -2.01075267547424E-13  4.99530140261019E-01
 cg2d: Sum(rhs),rhsMax =   6.03128658127616E-14  4.99315998709569E-01
 cg2d: Sum(rhs),rhsMax =   1.90861215720872E-13  4.99107542558152E-01
 cg2d: Sum(rhs),rhsMax =  -1.46216372343133E-13  4.98904908009386E-01
 cg2d: Sum(rhs),rhsMax =   1.00058850094342E-13  4.98707282672706E-01
 cg2d: Sum(rhs),rhsMax =   2.74918976472804E-14  4.98514556851883E-01
 cg2d: Sum(rhs),rhsMax =  -1.15060738714590E-13  4.98327066603542E-01
 cg2d: Sum(rhs),rhsMax =   5.39013278455514E-14  4.98144387697830E-01
 cg2d: Sum(rhs),rhsMax =   1.38861144804991E-13  4.97966134900496E-01
 cg2d: Sum(rhs),rhsMax =  -2.66175970153881E-14  4.97791865125339E-01
 cg2d: Sum(rhs),rhsMax =  -2.51049181443364E-13  4.97620862979307E-01
 cg2d: Sum(rhs),rhsMax =  -1.26218480112072E-13  4.97452317946157E-01
 cg2d: Sum(rhs),rhsMax =  -1.33948407921025E-13  4.97285376900850E-01
 cg2d: Sum(rhs),rhsMax =  -9.72416591693559E-14  4.97119797020354E-01
 cg2d: Sum(rhs),rhsMax =  -1.10675357767320E-13  4.96954658684030E-01
 cg2d: Sum(rhs),rhsMax =  -2.69395616925294E-13  4.96788291342020E-01
 cg2d: Sum(rhs),rhsMax =   1.30478960969072E-13  4.96622624479929E-01
 cg2d: Sum(rhs),rhsMax =  -7.54674100988950E-14  4.96452750942875E-01
 cg2d: Sum(rhs),rhsMax =  -2.03989602987065E-13  4.96279390697500E-01
 cg2d: Sum(rhs),rhsMax =  -6.74460487459783E-15  4.96100028871383E-01
 cg2d: Sum(rhs),rhsMax =   4.61575222487909E-14  4.95912420457910E-01
 cg2d: Sum(rhs),rhsMax =  -1.25802146477838E-13  4.95719889865454E-01
 cg2d: Sum(rhs),rhsMax =   1.24539267787327E-13  4.95521574732975E-01
 cg2d: Sum(rhs),rhsMax =   1.25455201782643E-13  4.95315694184496E-01
 cg2d: Sum(rhs),rhsMax =  -1.07844289054526E-13  4.95106274074336E-01
 cg2d: Sum(rhs),rhsMax =   5.60385071679548E-14  4.94892125930182E-01
 cg2d: Sum(rhs),rhsMax =   4.24535406828852E-13  4.94674426790116E-01
 cg2d: Sum(rhs),rhsMax =  -3.00592883917261E-14  4.94454269358970E-01
 cg2d: Sum(rhs),rhsMax =   3.25434124093249E-13  4.94232477085842E-01
 cg2d: Sum(rhs),rhsMax =   1.36751721058204E-13  4.94008374806154E-01
 cg2d: Sum(rhs),rhsMax =  -5.57609514117985E-14  4.93781164402834E-01
 cg2d: Sum(rhs),rhsMax =   2.78860268210224E-13  4.93543102054258E-01
 cg2d: Sum(rhs),rhsMax =  -1.18488552303120E-13  4.93304288621615E-01
 cg2d: Sum(rhs),rhsMax =  -2.98955304955939E-13  4.93066639918715E-01
 cg2d: Sum(rhs),rhsMax =   1.09759423772005E-13  4.92831025371785E-01
 cg2d: Sum(rhs),rhsMax =  -2.39822051106842E-13  4.92598443578375E-01
 cg2d: Sum(rhs),rhsMax =   1.72820091570713E-13  4.92369743488054E-01
 cg2d: Sum(rhs),rhsMax =  -2.33119079595667E-13  4.92145769041231E-01
 cg2d: Sum(rhs),rhsMax =   1.68198788230711E-14  4.91926957295808E-01
 cg2d: Sum(rhs),rhsMax =   5.06206188077840E-13  4.91713841442551E-01
 cg2d: Sum(rhs),rhsMax =  -1.52086676585839E-13  4.91507026061235E-01
 cg2d: Sum(rhs),rhsMax =  -2.72060152184395E-13  4.91306731949654E-01
 cg2d: Sum(rhs),rhsMax =   1.78440595632878E-13  4.91112978923569E-01
 cg2d: Sum(rhs),rhsMax =   2.76487166495087E-13  4.90925651947714E-01
 cg2d: Sum(rhs),rhsMax =  -1.18807741422700E-13  4.90744076962179E-01
 cg2d: Sum(rhs),rhsMax =  -2.58570942435199E-13  4.90568153181268E-01
 cg2d: Sum(rhs),rhsMax =  -1.94122495855709E-13  4.90397299338662E-01
 cg2d: Sum(rhs),rhsMax =  -4.04551392385599E-13  4.90230918465421E-01
 cg2d: Sum(rhs),rhsMax =   1.55847557081756E-14  4.90068153096703E-01
 cg2d: Sum(rhs),rhsMax =  -4.29503654864050E-13  4.89908191302760E-01
 cg2d: Sum(rhs),rhsMax =  -2.52811660494956E-13  4.89749944528447E-01
 cg2d: Sum(rhs),rhsMax =   5.02792252277118E-14  4.89592228710466E-01
 cg2d: Sum(rhs),rhsMax =   5.15143483426073E-14  4.89434134943369E-01
 cg2d: Sum(rhs),rhsMax =   1.62536650805123E-13  4.89275146604891E-01
 cg2d: Sum(rhs),rhsMax =  -2.82676659857373E-13  4.89114165876935E-01
 cg2d: Sum(rhs),rhsMax =   1.65298330578878E-13  4.88949963672300E-01
 cg2d: Sum(rhs),rhsMax =  -9.57567358739198E-14  4.88780502162189E-01
 cg2d: Sum(rhs),rhsMax =  -3.57505691717108E-13  4.88603930820623E-01
 cg2d: Sum(rhs),rhsMax =  -6.26679264037477E-13  4.88419610809359E-01
 cg2d: Sum(rhs),rhsMax =  -7.78405118140313E-14  4.88227554397904E-01
 cg2d: Sum(rhs),rhsMax =   2.13176698515838E-13  4.88027908232537E-01
 cg2d: Sum(rhs),rhsMax =   2.37740382935669E-13  4.87821053694822E-01
 cg2d: Sum(rhs),rhsMax =   4.05467326380915E-13  4.87607554027339E-01
 cg2d: Sum(rhs),rhsMax =  -4.22578638747950E-14  4.87388153754411E-01
 cg2d: Sum(rhs),rhsMax =  -7.13318293321663E-15  4.87163605768629E-01
 cg2d: Sum(rhs),rhsMax =  -4.43672876215828E-14  4.86935057248003E-01
 cg2d: Sum(rhs),rhsMax =   1.85823578746636E-14  4.86703669709135E-01
 cg2d: Sum(rhs),rhsMax =  -1.68753899743024E-13  4.86468598102626E-01
 cg2d: Sum(rhs),rhsMax =   1.01654795692241E-13  4.86229719072558E-01
 cg2d: Sum(rhs),rhsMax =  -1.86795023893183E-13  4.85987636199098E-01
 cg2d: Sum(rhs),rhsMax =  -1.13853371175310E-13  4.85744003766949E-01
 cg2d: Sum(rhs),rhsMax =  -5.32907051820075E-15  4.85500706247277E-01
 cg2d: Sum(rhs),rhsMax =   3.51094153749898E-13  4.85258903437815E-01
 cg2d: Sum(rhs),rhsMax =   9.05525654459893E-14  4.85019651727497E-01
 cg2d: Sum(rhs),rhsMax =  -3.49720252756924E-15  4.84783839958444E-01
 cg2d: Sum(rhs),rhsMax =  -1.15490950136632E-13  4.84552430093085E-01
 cg2d: Sum(rhs),rhsMax =   2.20656826144250E-13  4.84326600448420E-01
 cg2d: Sum(rhs),rhsMax =   4.97241137153992E-14  4.84106906792571E-01
 cg2d: Sum(rhs),rhsMax =  -1.45744527557667E-13  4.83894355960553E-01
 cg2d: Sum(rhs),rhsMax =  -1.94982918699793E-14  4.83689380379468E-01
 cg2d: Sum(rhs),rhsMax =   2.95805047123565E-13  4.83492273897708E-01
 cg2d: Sum(rhs),rhsMax =  -1.04749542373384E-13  4.83303122160613E-01
 cg2d: Sum(rhs),rhsMax =   3.59601237676088E-13  4.83121900409210E-01
 cg2d: Sum(rhs),rhsMax =  -2.54712917424627E-13  4.82948454959012E-01
 cg2d: Sum(rhs),rhsMax =   3.50552920025393E-14  4.82782528697875E-01
 cg2d: Sum(rhs),rhsMax =  -3.27099458630187E-14  4.82623564443561E-01
 cg2d: Sum(rhs),rhsMax =  -4.75230965690798E-13  4.82453638037198E-01
 cg2d: Sum(rhs),rhsMax =  -1.61884394778156E-13  4.82289086279862E-01
 cg2d: Sum(rhs),rhsMax =   1.87280746466456E-13  4.82129366863083E-01
 cg2d: Sum(rhs),rhsMax =  -2.03240202445443E-13  4.81973270568693E-01
 cg2d: Sum(rhs),rhsMax =   2.45553577471469E-13  4.81819713377148E-01
 cg2d: Sum(rhs),rhsMax =   3.34954286529410E-13  4.81667492318314E-01
 cg2d: Sum(rhs),rhsMax =   2.51881848711832E-14  4.81515424532295E-01
 cg2d: Sum(rhs),rhsMax =   1.64243618705484E-13  4.81361515278462E-01
 cg2d: Sum(rhs),rhsMax =  -8.09630140707895E-14  4.81204442456555E-01
 cg2d: Sum(rhs),rhsMax =   3.25794946576252E-13  4.81042939275781E-01
 cg2d: Sum(rhs),rhsMax =   2.95430346852754E-13  4.80874994631262E-01
 cg2d: Sum(rhs),rhsMax =   1.41470168912861E-13  4.80700123547503E-01
 cg2d: Sum(rhs),rhsMax =  -2.10428896529891E-13  4.80518343419746E-01
 cg2d: Sum(rhs),rhsMax =  -8.80684414283905E-14  4.80329866747162E-01
 cg2d: Sum(rhs),rhsMax =  -6.30745455865167E-14  4.80135100611052E-01
 cg2d: Sum(rhs),rhsMax =   2.90281687576055E-13  4.79934650155913E-01
 cg2d: Sum(rhs),rhsMax =  -1.30020993971414E-13  4.79729280086872E-01
 cg2d: Sum(rhs),rhsMax =   5.73430192218893E-14  4.79519916844429E-01
 cg2d: Sum(rhs),rhsMax =  -1.32394095686550E-13  4.79307599456221E-01
 cg2d: Sum(rhs),rhsMax =   1.60635393875452E-13  4.79092390966769E-01
 cg2d: Sum(rhs),rhsMax =  -5.09314812546791E-14  4.78873829174821E-01
 cg2d: Sum(rhs),rhsMax =   1.83852932877926E-13  4.78653255689043E-01
 cg2d: Sum(rhs),rhsMax =  -2.89962498456475E-13  4.78430505806667E-01
 cg2d: Sum(rhs),rhsMax =   3.35106942195296E-13  4.78207001763587E-01
 cg2d: Sum(rhs),rhsMax =  -4.99600361081320E-14  4.77984142282492E-01
 cg2d: Sum(rhs),rhsMax =   2.87436741075453E-13  4.77762809824461E-01
 cg2d: Sum(rhs),rhsMax =  -3.52037843320829E-13  4.77544128322032E-01
 cg2d: Sum(rhs),rhsMax =  -2.08708050841722E-13  4.77329083987326E-01
 cg2d: Sum(rhs),rhsMax =  -8.40022496007009E-14  4.77118450793572E-01
 cg2d: Sum(rhs),rhsMax =  -2.14259165964847E-13  4.76913025837962E-01
 cg2d: Sum(rhs),rhsMax =   4.95020691104742E-14  4.76713989293580E-01
 cg2d: Sum(rhs),rhsMax =  -4.65183447317941E-14  4.76521625769185E-01
 cg2d: Sum(rhs),rhsMax =  -3.27265992083881E-13  4.76336318589568E-01
(PID.TID 0000.0001) // =======================================================
(PID.TID 0000.0001) // Begin MONITOR dynamic field statistics
(PID.TID 0000.0001) // =======================================================
(PID.TID 0000.0001) %MON time_tsnumber                =                 10800
(PID.TID 0000.0001) %MON time_secondsf                =   1.2960000000000E+07
(PID.TID 0000.0001) %MON dynstat_eta_max              =   1.5443109367849E-01
(PID.TID 0000.0001) %MON dynstat_eta_min              =  -1.9714139624462E-01
(PID.TID 0000.0001) %MON dynstat_eta_mean             =   6.3926228461400E-17
(PID.TID 0000.0001) %MON dynstat_eta_sd               =   9.5869724509637E-02
(PID.TID 0000.0001) %MON dynstat_eta_del2             =   3.4512244195570E-04
(PID.TID 0000.0001) %MON dynstat_uvel_max             =   3.4248681002506E-01
(PID.TID 0000.0001) %MON dynstat_uvel_min             =  -4.2569605256400E-01
(PID.TID 0000.0001) %MON dynstat_uvel_mean            =  -6.2417584260995E-07
(PID.TID 0000.0001) %MON dynstat_uvel_sd              =   1.0915829631924E-02
(PID.TID 0000.0001) %MON dynstat_uvel_del2            =   3.3598760414375E-04
(PID.TID 0000.0001) %MON dynstat_vvel_max             =   3.8101691306515E-01
(PID.TID 0000.0001) %MON dynstat_vvel_min             =  -2.4107798826951E-01
(PID.TID 0000.0001) %MON dynstat_vvel_mean            =   1.5652952705107E-07
(PID.TID 0000.0001) %MON dynstat_vvel_sd              =   1.1903133053778E-02
(PID.TID 0000.0001) %MON dynstat_vvel_del2            =   2.2353337981200E-04
(PID.TID 0000.0001) %MON dynstat_wvel_max             =   2.2039608275283E-04
(PID.TID 0000.0001) %MON dynstat_wvel_min             =  -2.6792555157996E-04
(PID.TID 0000.0001) %MON dynstat_wvel_mean            =   1.1821671879436E-22
(PID.TID 0000.0001) %MON dynstat_wvel_sd              =   9.8074595242433E-06
(PID.TID 0000.0001) %MON dynstat_wvel_del2            =   3.0098268523141E-07
(PID.TID 0000.0001) %MON dynstat_theta_max            =   2.6911828503812E+01
(PID.TID 0000.0001) %MON dynstat_theta_min            =   9.9053541645714E-01
(PID.TID 0000.0001) %MON dynstat_theta_mean           =   4.0219210372914E+00
(PID.TID 0000.0001) %MON dynstat_theta_sd             =   4.4752640198724E+00
(PID.TID 0000.0001) %MON dynstat_theta_del2           =   2.3403309161836E-03
(PID.TID 0000.0001) %MON dynstat_salt_max             =   3.4500000000008E+01
(PID.TID 0000.0001) %MON dynstat_salt_min             =   3.4499999999983E+01
(PID.TID 0000.0001) %MON dynstat_salt_mean            =   3.4499999999999E+01
(PID.TID 0000.0001) %MON dynstat_salt_sd              =   2.0227778981310E-12
(PID.TID 0000.0001) %MON dynstat_salt_del2            =   1.3988743943524E-14
(PID.TID 0000.0001) %MON trAdv_CFL_u_max              =   1.2481502716077E-02
(PID.TID 0000.0001) %MON trAdv_CFL_v_max              =   4.2763928522302E-03
(PID.TID 0000.0001) %MON trAdv_CFL_w_max              =   2.0923887639992E-02
(PID.TID 0000.0001) %MON advcfl_uvel_max              =   1.2481344296549E-02
(PID.TID 0000.0001) %MON advcfl_vvel_max              =   4.1125264128859E-03
(PID.TID 0000.0001) %MON advcfl_wvel_max              =   1.9627119910205E-02
(PID.TID 0000.0001) %MON advcfl_W_hf_max              =   2.0923887639992E-02
(PID.TID 0000.0001) %MON pe_b_mean                    =   1.4522742813640E-05
(PID.TID 0000.0001) %MON ke_max                       =   1.0304219811871E-01
(PID.TID 0000.0001) %MON ke_mean                      =   1.2760721432228E-04
(PID.TID 0000.0001) %MON ke_vol                       =   7.5744557036543E+16
(PID.TID 0000.0001) %MON vort_r_min                   =  -9.1916779162963E-06
(PID.TID 0000.0001) %MON vort_r_max                   =   7.4302414525628E-06
(PID.TID 0000.0001) %MON vort_a_mean                  =   9.3555569952477E-05
(PID.TID 0000.0001) %MON vort_a_sd                    =   2.5195039941302E-05
(PID.TID 0000.0001) %MON vort_p_mean                  =   9.7478626213493E-05
(PID.TID 0000.0001) %MON vort_p_sd                    =   3.9503056456559E-05
(PID.TID 0000.0001) %MON surfExpan_theta_mean         =  -2.8804383578516E-09
(PID.TID 0000.0001) %MON surfExpan_salt_mean          =   9.7232448484292E-21
(PID.TID 0000.0001) // =======================================================
(PID.TID 0000.0001) // End MONITOR dynamic field statistics
(PID.TID 0000.0001) // =======================================================
(PID.TID 0000.0001) %CHECKPOINT     10800 ckptA
 cg2d: Sum(rhs),rhsMax =  -4.71844785465692E-15  4.76158142493318E-01
 cg2d: Sum(rhs),rhsMax =  -3.31387695062801E-13  4.75987044130735E-01
 cg2d: Sum(rhs),rhsMax =   3.85386167423007E-14  4.75822816258719E-01
 cg2d: Sum(rhs),rhsMax =   4.18692858161762E-14  4.75665293755960E-01
 cg2d: Sum(rhs),rhsMax =   6.09234884763055E-14  4.75513885926410E-01
 cg2d: Sum(rhs),rhsMax =  -1.66672231571852E-14  4.75368026112191E-01
 cg2d: Sum(rhs),rhsMax =   7.29971638691040E-15  4.75226887547543E-01
 cg2d: Sum(rhs),rhsMax =   2.23973617430318E-13  4.75089578957825E-01
 cg2d: Sum(rhs),rhsMax =  -1.97050709083157E-13  4.74955067766945E-01
 cg2d: Sum(rhs),rhsMax =   2.68854383200789E-13  4.74822324768919E-01
 cg2d: Sum(rhs),rhsMax =   2.28997376616746E-13  4.74690141360696E-01
 cg2d: Sum(rhs),rhsMax =   1.14505627202277E-13  4.74557138605349E-01
 cg2d: Sum(rhs),rhsMax =  -1.19307341783781E-13  4.74420337053554E-01
 cg2d: Sum(rhs),rhsMax =  -7.27889970519868E-14  4.74279869189518E-01
 cg2d: Sum(rhs),rhsMax =   1.73736025566029E-13  4.74134733310640E-01
 cg2d: Sum(rhs),rhsMax =   7.66886554259827E-14  4.73984190960048E-01
 cg2d: Sum(rhs),rhsMax =   9.70334923522387E-14  4.73827624155192E-01
 cg2d: Sum(rhs),rhsMax =  -1.17739151761498E-13  4.73663573487748E-01
 cg2d: Sum(rhs),rhsMax =  -2.60597099455140E-13  4.73492026946975E-01
 cg2d: Sum(rhs),rhsMax =  -5.51086953848312E-14  4.73313396763003E-01
 cg2d: Sum(rhs),rhsMax =   1.07802655691103E-13  4.73128135545992E-01
 cg2d: Sum(rhs),rhsMax =  -2.95596880306448E-14  4.72936902664414E-01
 cg2d: Sum(rhs),rhsMax =   1.04333208739149E-13  4.72740603205160E-01
 cg2d: Sum(rhs),rhsMax =  -1.03098085624254E-13  4.72539979845301E-01
 cg2d: Sum(rhs),rhsMax =  -1.10508824313627E-13  4.72334812719567E-01
 cg2d: Sum(rhs),rhsMax =   5.07788255887931E-14  4.72125834910741E-01
 cg2d: Sum(rhs),rhsMax =  -7.59531326721685E-14  4.71914384510678E-01
 cg2d: Sum(rhs),rhsMax =   2.62567745323850E-14  4.71702261717272E-01
 cg2d: Sum(rhs),rhsMax =   2.46469511466785E-14  4.71488948477086E-01
 cg2d: Sum(rhs),rhsMax =   5.46784839627890E-15  4.71274869381383E-01
 cg2d: Sum(rhs),rhsMax =   8.89704976358985E-14  4.71061265720946E-01
 cg2d: Sum(rhs),rhsMax =  -1.43496325932801E-14  4.70849180868215E-01
 cg2d: Sum(rhs),rhsMax =   2.07209249758478E-13  4.70639535024801E-01
 cg2d: Sum(rhs),rhsMax =  -2.30371277609720E-13  4.70433268884391E-01
 cg2d: Sum(rhs),rhsMax =   2.30468422124375E-13  4.70231157815141E-01
 cg2d: Sum(rhs),rhsMax =  -1.96953564568503E-13  4.70033991267221E-01
 cg2d: Sum(rhs),rhsMax =  -1.30909172391114E-13  4.69842240133225E-01
 cg2d: Sum(rhs),rhsMax =  -5.80369086122801E-14  4.69656417833317E-01
 cg2d: Sum(rhs),rhsMax =  -1.89806503847478E-13  4.69476864200921E-01
 cg2d: Sum(rhs),rhsMax =   1.85185200507476E-13  4.69303333517450E-01
 cg2d: Sum(rhs),rhsMax =   8.91231533017844E-14  4.69136131010942E-01
 cg2d: Sum(rhs),rhsMax =  -5.07371922253697E-14  4.68975150625796E-01
 cg2d: Sum(rhs),rhsMax =  -3.95239396766556E-14  4.68818772223277E-01
 cg2d: Sum(rhs),rhsMax =   2.44693154627385E-13  4.68657316202034E-01
 cg2d: Sum(rhs),rhsMax =  -1.84852133600089E-14  4.68499925870137E-01
 cg2d: Sum(rhs),rhsMax =   1.44453893291541E-13  4.68346539732063E-01
 cg2d: Sum(rhs),rhsMax =  -1.13103970633688E-13  4.68196368289307E-01
 cg2d: Sum(rhs),rhsMax =  -1.47548639972683E-13  4.68048775124834E-01
 cg2d: Sum(rhs),rhsMax =  -1.48492329543615E-13  4.67905740805367E-01
 cg2d: Sum(rhs),rhsMax =  -4.12725409404402E-14  4.67764380775158E-01
 cg2d: Sum(rhs),rhsMax =  -3.14304138271382E-13  4.67620731620738E-01
 cg2d: Sum(rhs),rhsMax =   1.53585477669083E-13  4.67474130826610E-01
 cg2d: Sum(rhs),rhsMax =  -1.61717861324462E-13  4.67324334917185E-01
 cg2d: Sum(rhs),rhsMax =   2.39766539955610E-13  4.67171250070924E-01
 cg2d: Sum(rhs),rhsMax =   8.14764922196787E-14  4.67014333063121E-01
 cg2d: Sum(rhs),rhsMax =  -2.87270207621759E-14  4.66853190332675E-01
 cg2d: Sum(rhs),rhsMax =   1.22235555011230E-13  4.66687508772581E-01
 cg2d: Sum(rhs),rhsMax =  -9.15378883803442E-14  4.66517163301006E-01
 cg2d: Sum(rhs),rhsMax =  -7.89507348386564E-14  4.66342107377266E-01
 cg2d: Sum(rhs),rhsMax =  -3.64014374198973E-14  4.66162567982811E-01
 cg2d: Sum(rhs),rhsMax =   1.74013581322185E-13  4.65978760105673E-01
 cg2d: Sum(rhs),rhsMax =   1.37195810268054E-13  4.65791145453717E-01
 cg2d: Sum(rhs),rhsMax =  -5.64964741656127E-14  4.65600201072200E-01
 cg2d: Sum(rhs),rhsMax =  -2.12038719915597E-13  4.65407276159711E-01
 cg2d: Sum(rhs),rhsMax =  -4.29517532651857E-14  4.65213486896754E-01
 cg2d: Sum(rhs),rhsMax =   1.22027388194113E-13  4.65019568571657E-01
 cg2d: Sum(rhs),rhsMax =   2.16729412194638E-13  4.64826251822206E-01
 cg2d: Sum(rhs),rhsMax =   7.34828864423775E-14  4.64633342430530E-01
 cg2d: Sum(rhs),rhsMax =  -6.71129818385907E-14  4.64440831003134E-01
 cg2d: Sum(rhs),rhsMax =   3.31817906484844E-14  4.64249491085847E-01
 cg2d: Sum(rhs),rhsMax =  -1.84213755360929E-13  4.64059989095607E-01
 cg2d: Sum(rhs),rhsMax =  -1.84949278114743E-13  4.63873037359928E-01
 cg2d: Sum(rhs),rhsMax =  -1.56416546381877E-13  4.63689175496731E-01
 cg2d: Sum(rhs),rhsMax =   2.09762762715116E-13  4.63508961506984E-01
 cg2d: Sum(rhs),rhsMax =  -2.93792767891432E-14  4.63332725653042E-01
 cg2d: Sum(rhs),rhsMax =  -9.77135039548216E-14  4.63160822822276E-01
 cg2d: Sum(rhs),rhsMax =  -1.35211286611536E-13  4.62993360663360E-01
 cg2d: Sum(rhs),rhsMax =   1.41900380334903E-13  4.62830451404438E-01
 cg2d: Sum(rhs),rhsMax =  -4.67959004879503E-14  4.62671980642746E-01
 cg2d: Sum(rhs),rhsMax =   1.39985245617424E-13  4.62517804086161E-01
 cg2d: Sum(rhs),rhsMax =   5.71348524047721E-14  4.62367546257384E-01
 cg2d: Sum(rhs),rhsMax =  -1.85046422629398E-13  4.62220850015561E-01
 cg2d: Sum(rhs),rhsMax =  -1.49241730085237E-13  4.62077145052310E-01
 cg2d: Sum(rhs),rhsMax =   1.04444231041612E-13  4.61935913756166E-01
 cg2d: Sum(rhs),rhsMax =   8.44324610227432E-14  4.61796443029627E-01
 cg2d: Sum(rhs),rhsMax =   1.56083479474489E-13  4.61658120822008E-01
 cg2d: Sum(rhs),rhsMax =   1.56402668594069E-14  4.61520163079834E-01
 cg2d: Sum(rhs),rhsMax =   2.88782886492811E-13  4.61380041589691E-01
 cg2d: Sum(rhs),rhsMax =  -6.48925357893404E-14  4.61236625238900E-01
 cg2d: Sum(rhs),rhsMax =   2.66245359092920E-13  4.61089489111201E-01
 cg2d: Sum(rhs),rhsMax =   4.22425983082064E-13  4.60938562207852E-01
 cg2d: Sum(rhs),rhsMax =   6.67799149312032E-14  4.60783814014959E-01
 cg2d: Sum(rhs),rhsMax =   1.85879089897867E-13  4.60624848062412E-01
 cg2d: Sum(rhs),rhsMax =   3.78086451036097E-13  4.60462044285955E-01
 cg2d: Sum(rhs),rhsMax =  -3.70120600834412E-14  4.60295350584007E-01
 cg2d: Sum(rhs),rhsMax =   6.57529586334249E-14  4.60124959236044E-01
 cg2d: Sum(rhs),rhsMax =   1.41608946790939E-13  4.59951084272341E-01
 cg2d: Sum(rhs),rhsMax =   1.26287869051112E-14  4.59774161036896E-01
 cg2d: Sum(rhs),rhsMax =  -1.00405794789538E-13  4.59593610037001E-01
 cg2d: Sum(rhs),rhsMax =  -1.21874732528227E-13  4.59411232098386E-01
 cg2d: Sum(rhs),rhsMax =   5.55944179581047E-14  4.59228045712030E-01
 cg2d: Sum(rhs),rhsMax =  -4.04370981144098E-13  4.59044917584924E-01
 cg2d: Sum(rhs),rhsMax =   9.15933995315754E-14  4.58862694852844E-01
 cg2d: Sum(rhs),rhsMax =  -2.30634955578068E-13  4.58682301226280E-01
 cg2d: Sum(rhs),rhsMax =   2.45595210834892E-13  4.58504631186254E-01
 cg2d: Sum(rhs),rhsMax =  -1.83353332516845E-13  4.58330715826813E-01
 cg2d: Sum(rhs),rhsMax =  -2.22308282893380E-13  4.58159698470449E-01
 cg2d: Sum(rhs),rhsMax =  -6.73905375947470E-14  4.57991848575330E-01
 cg2d: Sum(rhs),rhsMax =  -5.10397279995800E-13  4.57827877526330E-01
 cg2d: Sum(rhs),rhsMax =   3.38618022510673E-15  4.57668350708513E-01
 cg2d: Sum(rhs),rhsMax =   4.80726569662693E-14  4.57513755715076E-01
 cg2d: Sum(rhs),rhsMax =  -1.05221387158849E-13  4.57364426961582E-01
 cg2d: Sum(rhs),rhsMax =  -5.84532422465145E-14  4.57220628657043E-01
 cg2d: Sum(rhs),rhsMax =   2.39280817382337E-13  4.57082464409902E-01
 cg2d: Sum(rhs),rhsMax =   2.06612504882742E-13  4.56949907715699E-01
 cg2d: Sum(rhs),rhsMax =   6.62248034188906E-14  4.56822793204059E-01
 cg2d: Sum(rhs),rhsMax =  -1.17891807427384E-13  4.56700800747848E-01
 cg2d: Sum(rhs),rhsMax =   1.63757896132211E-13  4.56583495875028E-01
 cg2d: Sum(rhs),rhsMax =  -3.52634588196565E-13  4.56470328949982E-01
 cg2d: Sum(rhs),rhsMax =   2.63400412592318E-14  4.56360575575938E-01
 cg2d: Sum(rhs),rhsMax =   3.88022947106492E-14  4.56253452428859E-01
 cg2d: Sum(rhs),rhsMax =   1.07552855510562E-13  4.56148082217610E-01
 cg2d: Sum(rhs),rhsMax =   7.02354840953490E-14  4.56043556572393E-01
 cg2d: Sum(rhs),rhsMax =  -1.34017796860064E-13  4.55938910107825E-01
 cg2d: Sum(rhs),rhsMax =  -2.65981681124572E-13  4.55831877838099E-01
 cg2d: Sum(rhs),rhsMax =   1.17211795824801E-13  4.55720387201105E-01
 cg2d: Sum(rhs),rhsMax =  -1.09773301559812E-13  4.55603501841406E-01
 cg2d: Sum(rhs),rhsMax =   1.18668963544621E-13  4.55480503996468E-01
 cg2d: Sum(rhs),rhsMax =  -3.58740814832004E-14  4.55351281917740E-01
 cg2d: Sum(rhs),rhsMax =  -2.96332403060262E-13  4.55215348196804E-01
 cg2d: Sum(rhs),rhsMax =  -1.25677246387568E-13  4.55072358278771E-01
 cg2d: Sum(rhs),rhsMax =  -1.45827794284514E-13  4.54922151076455E-01
 cg2d: Sum(rhs),rhsMax =  -3.91228716090097E-13  4.54764736924700E-01
 cg2d: Sum(rhs),rhsMax =  -1.16920362280837E-13  4.54600311921921E-01
 cg2d: Sum(rhs),rhsMax =   5.74540415243519E-15  4.54429187410775E-01
 cg2d: Sum(rhs),rhsMax =   2.58904009342587E-13  4.54251845675762E-01
 cg2d: Sum(rhs),rhsMax =   2.12121986642444E-13  4.54068995159328E-01
 cg2d: Sum(rhs),rhsMax =  -3.60003693522515E-13  4.53881357763744E-01
 cg2d: Sum(rhs),rhsMax =   1.36030076092197E-13  4.53689718293848E-01
 cg2d: Sum(rhs),rhsMax =  -1.84352533239007E-13  4.53495170471420E-01
 cg2d: Sum(rhs),rhsMax =   1.78468351208494E-14  4.53298689085550E-01
 cg2d: Sum(rhs),rhsMax =  -8.78186412478499E-14  4.53101363081947E-01
 cg2d: Sum(rhs),rhsMax =  -1.67171831932933E-13  4.52904576776488E-01
 cg2d: Sum(rhs),rhsMax =   1.11424758308942E-13  4.52709662845311E-01
 cg2d: Sum(rhs),rhsMax =   8.19483370051444E-14  4.52517471991502E-01
 cg2d: Sum(rhs),rhsMax =  -1.57249213650346E-13  4.52326851649109E-01
 cg2d: Sum(rhs),rhsMax =   2.13745687815958E-13  4.52138677557284E-01
 cg2d: Sum(rhs),rhsMax =  -5.53029844141406E-14  4.51953851694366E-01
 cg2d: Sum(rhs),rhsMax =  -2.42930675575792E-13  4.51773195620852E-01
 cg2d: Sum(rhs),rhsMax =   2.58820742615740E-14  4.51597446523608E-01
 cg2d: Sum(rhs),rhsMax =  -1.95787830392646E-13  4.51427158440160E-01
 cg2d: Sum(rhs),rhsMax =   5.92720317271755E-14  4.51262579047819E-01
 cg2d: Sum(rhs),rhsMax =  -1.40859546249317E-14  4.51104025060090E-01
 cg2d: Sum(rhs),rhsMax =   5.10272379905530E-13  4.50951597152123E-01
 cg2d: Sum(rhs),rhsMax =  -4.02872180060854E-14  4.50805381353566E-01
 cg2d: Sum(rhs),rhsMax =  -3.82624487649252E-13  4.50665296118656E-01
 cg2d: Sum(rhs),rhsMax =  -2.20920504112598E-13  4.50531014622564E-01
 cg2d: Sum(rhs),rhsMax =   1.76164638432397E-13  4.50402095458501E-01
 cg2d: Sum(rhs),rhsMax =  -2.16465734226290E-13  4.50278033082251E-01
 cg2d: Sum(rhs),rhsMax =  -2.45387044017775E-13  4.50158182367381E-01
 cg2d: Sum(rhs),rhsMax =  -1.04652397858729E-13  4.50041818663487E-01
 cg2d: Sum(rhs),rhsMax =   4.98823204964083E-13  4.49928009215023E-01
 cg2d: Sum(rhs),rhsMax =  -4.73010519641548E-13  4.49813404197219E-01
 cg2d: Sum(rhs),rhsMax =  -4.10033118569686E-13  4.49696706096825E-01
 cg2d: Sum(rhs),rhsMax =  -1.30950805754537E-13  4.49577071614978E-01
 cg2d: Sum(rhs),rhsMax =  -1.24206200879939E-13  4.49453734492344E-01
 cg2d: Sum(rhs),rhsMax =  -2.95152791096598E-13  4.49326549893581E-01
 cg2d: Sum(rhs),rhsMax =  -2.28067564833623E-13  4.49194956130300E-01
 cg2d: Sum(rhs),rhsMax =  -1.09356967925578E-13  4.49058514763968E-01
 cg2d: Sum(rhs),rhsMax =   1.25316423904565E-14  4.48916940891800E-01
 cg2d: Sum(rhs),rhsMax =  -2.03587147140638E-13  4.48770105813401E-01
 cg2d: Sum(rhs),rhsMax =  -2.06334949126585E-13  4.48617996410085E-01
 cg2d: Sum(rhs),rhsMax =   2.18727813638964E-13  4.48464843539951E-01
 cg2d: Sum(rhs),rhsMax =   1.05734865307738E-13  4.48310335455038E-01
 cg2d: Sum(rhs),rhsMax =  -2.45775622076394E-13  4.48151386175087E-01
 cg2d: Sum(rhs),rhsMax =   2.72448730243013E-13  4.47988491458752E-01
 cg2d: Sum(rhs),rhsMax =  -4.06341627012807E-14  4.47822343987513E-01
 cg2d: Sum(rhs),rhsMax =  -5.16947595841089E-14  4.47653699243886E-01
 cg2d: Sum(rhs),rhsMax =  -2.87686541255994E-14  4.47483399639027E-01
 cg2d: Sum(rhs),rhsMax =  -7.59114993087451E-15  4.47312356102226E-01
 cg2d: Sum(rhs),rhsMax =  -2.15258366687010E-13  4.47141962118118E-01
 cg2d: Sum(rhs),rhsMax =   8.46683834154760E-14  4.46973296940874E-01
 cg2d: Sum(rhs),rhsMax =   6.82648382266393E-14  4.46807308048183E-01
 cg2d: Sum(rhs),rhsMax =  -1.87683202312883E-13  4.46644879359409E-01
 cg2d: Sum(rhs),rhsMax =  -2.57960319771655E-13  4.46485297035929E-01
 cg2d: Sum(rhs),rhsMax =   3.78141962187328E-13  4.46328509154434E-01
 cg2d: Sum(rhs),rhsMax =  -4.03149735817010E-13  4.46175288237370E-01
 cg2d: Sum(rhs),rhsMax =   3.14998027661773E-13  4.46026275912695E-01
 cg2d: Sum(rhs),rhsMax =  -1.04041775195185E-13  4.45881775408504E-01
 cg2d: Sum(rhs),rhsMax =  -3.30291349825984E-15  4.45742112213996E-01
 cg2d: Sum(rhs),rhsMax =  -2.15480411291935E-13  4.45607697183068E-01
 cg2d: Sum(rhs),rhsMax =   2.32217023388159E-13  4.45478554489268E-01
 cg2d: Sum(rhs),rhsMax =  -2.00464644883880E-13  4.45354544805016E-01
 cg2d: Sum(rhs),rhsMax =   1.51337276044217E-13  4.45235711318911E-01
 cg2d: Sum(rhs),rhsMax =   8.84153861235859E-14  4.45121939063505E-01
 cg2d: Sum(rhs),rhsMax =  -1.49880108324396E-13  4.45013461101985E-01
 cg2d: Sum(rhs),rhsMax =  -1.32463484625589E-13  4.44908267260987E-01
 cg2d: Sum(rhs),rhsMax =  -1.32796551532977E-13  4.44807765046694E-01
 cg2d: Sum(rhs),rhsMax =   2.88546964100078E-13  4.44710894812126E-01
 cg2d: Sum(rhs),rhsMax =  -2.13717932240343E-15  4.44614895345958E-01
 cg2d: Sum(rhs),rhsMax =   3.98334143447698E-13  4.44519341799096E-01
 cg2d: Sum(rhs),rhsMax =  -3.07323611004051E-13  4.44420880694427E-01
 cg2d: Sum(rhs),rhsMax =   5.69544411632705E-14  4.44321043830799E-01
 cg2d: Sum(rhs),rhsMax =   2.55920284963906E-13  4.44216278060972E-01
 cg2d: Sum(rhs),rhsMax =  -3.95655730400790E-14  4.44108330421378E-01
 cg2d: Sum(rhs),rhsMax =  -1.20639609413331E-13  4.43994550914729E-01
 cg2d: Sum(rhs),rhsMax =   3.01147995429574E-15  4.43875025223965E-01
 cg2d: Sum(rhs),rhsMax =  -4.27158308724529E-13  4.43750648859088E-01
 cg2d: Sum(rhs),rhsMax =   2.45720110925163E-13  4.43619173208369E-01
 cg2d: Sum(rhs),rhsMax =   1.94774751882676E-13  4.43481597839921E-01
 cg2d: Sum(rhs),rhsMax =   1.43746126113342E-13  4.43337752821228E-01
 cg2d: Sum(rhs),rhsMax =   2.85993451143440E-13  4.43187832665778E-01
 cg2d: Sum(rhs),rhsMax =   4.63601379507850E-13  4.43032199121429E-01
 cg2d: Sum(rhs),rhsMax =  -9.28285226464709E-14  4.42871344170987E-01
 cg2d: Sum(rhs),rhsMax =   2.09554595897998E-14  4.42705895965111E-01
 cg2d: Sum(rhs),rhsMax =  -4.08867384393830E-13  4.42536583736150E-01
 cg2d: Sum(rhs),rhsMax =  -3.00023894617141E-13  4.42364264097603E-01
 cg2d: Sum(rhs),rhsMax =  -3.70675712346724E-14  4.42189809784327E-01
 cg2d: Sum(rhs),rhsMax =   5.71487301925799E-14  4.42014360888387E-01
 cg2d: Sum(rhs),rhsMax =   2.62442845233579E-13  4.41839322892282E-01
 cg2d: Sum(rhs),rhsMax =   2.59209320674358E-13  4.41665665507735E-01
 cg2d: Sum(rhs),rhsMax =   2.40085729075190E-13  4.41494329367267E-01
 cg2d: Sum(rhs),rhsMax =   1.27578503317238E-13  4.41326427313687E-01
 cg2d: Sum(rhs),rhsMax =   3.58643670317349E-13  4.41161810155903E-01
 cg2d: Sum(rhs),rhsMax =   1.87197479739609E-13  4.40999852278544E-01
 cg2d: Sum(rhs),rhsMax =   1.36987643450937E-13  4.40840941941036E-01
 cg2d: Sum(rhs),rhsMax =   1.36668454331357E-13  4.41064302795211E-01
 cg2d: Sum(rhs),rhsMax =   9.04137875679112E-14  4.41392419894353E-01
 cg2d: Sum(rhs),rhsMax =  -1.67324487598819E-13  4.41718286319454E-01
 cg2d: Sum(rhs),rhsMax =   1.94844140821715E-13  4.42040788911518E-01
 cg2d: Sum(rhs),rhsMax =  -2.90323320939478E-14  4.42360020630873E-01
 cg2d: Sum(rhs),rhsMax =   1.55861434869564E-13  4.42675966405820E-01
 cg2d: Sum(rhs),rhsMax =  -2.00534033822919E-13  4.42988082122100E-01
 cg2d: Sum(rhs),rhsMax =  -1.60427227058335E-13  4.43296111328657E-01
 cg2d: Sum(rhs),rhsMax =   2.72809552726017E-13  4.43599753102742E-01
 cg2d: Sum(rhs),rhsMax =   3.16954795742674E-13  4.43898995811379E-01
 cg2d: Sum(rhs),rhsMax =   3.60142471400593E-13  4.44193710262492E-01
 cg2d: Sum(rhs),rhsMax =   6.20059559253150E-14  4.44483821433426E-01
 cg2d: Sum(rhs),rhsMax =  -2.62151411689615E-13  4.44769564646344E-01
 cg2d: Sum(rhs),rhsMax =   2.80386824869083E-13  4.45051211071548E-01
 cg2d: Sum(rhs),rhsMax =  -3.45404260748694E-13  4.45328833390859E-01
 cg2d: Sum(rhs),rhsMax =  -2.62526111960426E-13  4.45602412166126E-01
 cg2d: Sum(rhs),rhsMax =  -3.33580385536436E-13  4.45872368154315E-01
 cg2d: Sum(rhs),rhsMax =   2.86146106809326E-13  4.46138934745978E-01
 cg2d: Sum(rhs),rhsMax =   3.13860049061532E-13  4.46402611568872E-01
 cg2d: Sum(rhs),rhsMax =  -2.42222908397594E-13  4.46663615523372E-01
 cg2d: Sum(rhs),rhsMax =  -2.44568254537114E-13  4.46922436508134E-01
 cg2d: Sum(rhs),rhsMax =  -1.38750122502529E-13  4.47179412684126E-01
 cg2d: Sum(rhs),rhsMax =  -8.53761505936745E-14  4.47435029558648E-01
 cg2d: Sum(rhs),rhsMax =   4.58799664926346E-14  4.47689475917255E-01
 cg2d: Sum(rhs),rhsMax =   9.29395449489334E-14  4.47943206913162E-01
 cg2d: Sum(rhs),rhsMax =  -9.74775815620887E-14  4.48196428497321E-01
 cg2d: Sum(rhs),rhsMax =   1.45994327738208E-14  4.48449479473758E-01
 cg2d: Sum(rhs),rhsMax =  -1.44620426745234E-13  4.48702536743469E-01
 cg2d: Sum(rhs),rhsMax =   2.03073668991749E-13  4.48955890323776E-01
 cg2d: Sum(rhs),rhsMax =  -4.25076640553357E-14  4.49209610356141E-01
 cg2d: Sum(rhs),rhsMax =  -6.45872244575685E-14  4.49463872160614E-01
 cg2d: Sum(rhs),rhsMax =   4.09006162271908E-13  4.49718626133318E-01
 cg2d: Sum(rhs),rhsMax =   1.39985245617424E-13  4.49973964041829E-01
 cg2d: Sum(rhs),rhsMax =   1.56624713198994E-13  4.50229655420716E-01
 cg2d: Sum(rhs),rhsMax =  -3.60961260881254E-14  4.50485668472284E-01
 cg2d: Sum(rhs),rhsMax =   9.13019659876113E-14  4.50741575263806E-01
 cg2d: Sum(rhs),rhsMax =   4.59396409802082E-13  4.50997347990146E-01
 cg2d: Sum(rhs),rhsMax =   1.15962794922098E-13  4.51252782547461E-01
 cg2d: Sum(rhs),rhsMax =   7.87703235971549E-14  4.51507827477929E-01
 cg2d: Sum(rhs),rhsMax =   8.75410854916936E-14  4.51762119195347E-01
 cg2d: Sum(rhs),rhsMax =   1.79189996174500E-13  4.52015591115808E-01
 cg2d: Sum(rhs),rhsMax =   2.42320052912248E-13  4.52678904692309E-01
 cg2d: Sum(rhs),rhsMax =  -1.42275080605714E-13  4.53810852656015E-01
 cg2d: Sum(rhs),rhsMax =   3.31290550548147E-13  4.54940870775629E-01
 cg2d: Sum(rhs),rhsMax =  -9.62424584471933E-14  4.56069885563381E-01
 cg2d: Sum(rhs),rhsMax =   5.16253706450698E-14  4.57198644087751E-01
 cg2d: Sum(rhs),rhsMax =   1.33185129591595E-13  4.58328070306406E-01
 cg2d: Sum(rhs),rhsMax =   3.33358340931511E-13  4.59458867461040E-01
 cg2d: Sum(rhs),rhsMax =  -2.11636264069170E-13  4.60591963406886E-01
 cg2d: Sum(rhs),rhsMax =  -1.97536431656431E-13  4.61727873256638E-01
 cg2d: Sum(rhs),rhsMax =   2.76001443921814E-13  4.62867131187384E-01
 cg2d: Sum(rhs),rhsMax =   2.88866153219658E-13  4.64010194331267E-01
 cg2d: Sum(rhs),rhsMax =  -1.87752591251922E-13  4.65158282239377E-01
 cg2d: Sum(rhs),rhsMax =   1.68379199472213E-13  4.66310526279538E-01
 cg2d: Sum(rhs),rhsMax =   5.56638068971438E-14  4.67464567296588E-01
 cg2d: Sum(rhs),rhsMax =  -2.31897834268580E-14  4.68620237226333E-01
 cg2d: Sum(rhs),rhsMax =  -2.25527929664793E-13  4.69768454724207E-01
 cg2d: Sum(rhs),rhsMax =  -2.37795894086901E-13  4.70917513443572E-01
 cg2d: Sum(rhs),rhsMax =  -3.20854454116670E-14  4.72067323013502E-01
 cg2d: Sum(rhs),rhsMax =   1.77080572427712E-13  4.73217342353137E-01
 cg2d: Sum(rhs),rhsMax =  -1.67282854235395E-13  4.74367029228538E-01
 cg2d: Sum(rhs),rhsMax =   4.19664303308309E-14  4.75515749655440E-01
 cg2d: Sum(rhs),rhsMax =   7.09016179101241E-14  4.76662844407166E-01
 cg2d: Sum(rhs),rhsMax =  -4.10685374596653E-13  4.77807597262693E-01
 cg2d: Sum(rhs),rhsMax =  -1.24164567516516E-13  4.78949247480307E-01
 cg2d: Sum(rhs),rhsMax =   1.82145964977565E-13  4.80087152248411E-01
 cg2d: Sum(rhs),rhsMax =   3.61932706027801E-14  4.81220678033945E-01
 cg2d: Sum(rhs),rhsMax =   4.24327240011735E-13  4.82349190378995E-01
 cg2d: Sum(rhs),rhsMax =   1.81146764255402E-13  4.83472160660333E-01
 cg2d: Sum(rhs),rhsMax =   4.90441021128163E-14  4.84589151798877E-01
 cg2d: Sum(rhs),rhsMax =   4.28976298927353E-13  4.85698539061585E-01
 cg2d: Sum(rhs),rhsMax =   5.45952172359421E-14  4.86798011077372E-01
 cg2d: Sum(rhs),rhsMax =   5.37070388162419E-14  4.87887694964484E-01
 cg2d: Sum(rhs),rhsMax =   3.62723739932846E-13  4.88973459723974E-01
 cg2d: Sum(rhs),rhsMax =  -8.03662691950535E-14  4.90050005306586E-01
 cg2d: Sum(rhs),rhsMax =  -1.43690614962111E-13  4.91117384166903E-01
 cg2d: Sum(rhs),rhsMax =  -2.36380359730504E-13  4.92177779075316E-01
 cg2d: Sum(rhs),rhsMax =  -2.92321722383804E-13  4.93229884196035E-01
 cg2d: Sum(rhs),rhsMax =   2.48190357154954E-13  4.94273949566237E-01
 cg2d: Sum(rhs),rhsMax =  -2.25597318603832E-13  4.95310504566733E-01
 cg2d: Sum(rhs),rhsMax =  -2.50313658689549E-13  4.96340132668381E-01
 cg2d: Sum(rhs),rhsMax =   6.66133814775094E-15  4.97363601978836E-01
 cg2d: Sum(rhs),rhsMax =  -1.70835567914196E-13  4.98381714263731E-01
 cg2d: Sum(rhs),rhsMax =   2.86756729472870E-13  4.99394397405937E-01
 cg2d: Sum(rhs),rhsMax =  -1.18710596908045E-13  5.00400606254468E-01
 cg2d: Sum(rhs),rhsMax =   2.19255169575661E-13  5.01400741144281E-01
 cg2d: Sum(rhs),rhsMax =   1.31228361510694E-13  5.02395364462120E-01
 cg2d: Sum(rhs),rhsMax =  -9.48824352420274E-14  5.03384803948294E-01
 cg2d: Sum(rhs),rhsMax =   1.35669253609194E-13  5.04369376834556E-01
 cg2d: Sum(rhs),rhsMax =  -4.52735071654331E-13  5.05349293597393E-01
 cg2d: Sum(rhs),rhsMax =   6.19920781375072E-14  5.06326064141754E-01
 cg2d: Sum(rhs),rhsMax =  -9.19264664389630E-14  5.07299708736581E-01
 cg2d: Sum(rhs),rhsMax =   7.34967642301854E-14  5.08268742343119E-01
 cg2d: Sum(rhs),rhsMax =  -3.87689880199105E-13  5.09231511642653E-01
 cg2d: Sum(rhs),rhsMax =   2.69076427805715E-13  5.10187991901494E-01
 cg2d: Sum(rhs),rhsMax =  -8.78741523990811E-14  5.11138004405510E-01
 cg2d: Sum(rhs),rhsMax =   1.33087985076941E-13  5.12081521944605E-01
 cg2d: Sum(rhs),rhsMax =   2.84355872182118E-14  5.13018320148606E-01
 cg2d: Sum(rhs),rhsMax =   1.81646364616483E-13  5.13948097505556E-01
 cg2d: Sum(rhs),rhsMax =   1.34933730855380E-13  5.14870756893366E-01
 cg2d: Sum(rhs),rhsMax =  -3.49997808513081E-14  5.15786051576277E-01
 cg2d: Sum(rhs),rhsMax =   4.11198852745542E-14  5.16693708299387E-01
 cg2d: Sum(rhs),rhsMax =  -3.46250805804971E-14  5.17593490826669E-01
 cg2d: Sum(rhs),rhsMax =   1.91083260325797E-13  5.18485680966238E-01
 cg2d: Sum(rhs),rhsMax =  -7.16093850883226E-15  5.19369903763037E-01
 cg2d: Sum(rhs),rhsMax =   1.40956690763971E-13  5.20245883545801E-01
 cg2d: Sum(rhs),rhsMax =   1.02251540567977E-13  5.21113587089880E-01
 cg2d: Sum(rhs),rhsMax =   3.09779979446034E-13  5.21972888426822E-01
 cg2d: Sum(rhs),rhsMax =   1.47687417850761E-13  5.22823637862308E-01
 cg2d: Sum(rhs),rhsMax =   1.45869427647938E-13  5.23662727206430E-01
 cg2d: Sum(rhs),rhsMax =   9.87404602525999E-14  5.24490054462747E-01
 cg2d: Sum(rhs),rhsMax =   1.69239622316297E-13  5.25306763473538E-01
 cg2d: Sum(rhs),rhsMax =   1.43968170718267E-13  5.26113415088473E-01
 cg2d: Sum(rhs),rhsMax =   1.63896674010289E-14  5.26910261101250E-01
 cg2d: Sum(rhs),rhsMax =  -3.14553938451922E-13  5.27697799562982E-01
 cg2d: Sum(rhs),rhsMax =  -4.45476988630844E-15  5.28475441851228E-01
 cg2d: Sum(rhs),rhsMax =  -2.12545259170582E-13  5.29244848103978E-01
 cg2d: Sum(rhs),rhsMax =  -2.58675025843758E-13  5.30006731608675E-01
 cg2d: Sum(rhs),rhsMax =   1.07393260950772E-13  5.30761351726316E-01
 cg2d: Sum(rhs),rhsMax =   1.52107493267550E-13  5.31499532917291E-01
 cg2d: Sum(rhs),rhsMax =  -2.35929331626750E-13  5.32231162584040E-01
 cg2d: Sum(rhs),rhsMax =  -8.04079025584770E-14  5.32957287019768E-01
 cg2d: Sum(rhs),rhsMax =   2.48037701489068E-13  5.33678218524746E-01
 cg2d: Sum(rhs),rhsMax =  -2.84494650060196E-16  5.34394731992726E-01
 cg2d: Sum(rhs),rhsMax =   3.20091175787240E-14  5.35107256387945E-01
 cg2d: Sum(rhs),rhsMax =   5.79397640976254E-15  5.35826790726541E-01
 cg2d: Sum(rhs),rhsMax =  -3.34801630863524E-13  5.36543238673914E-01
 cg2d: Sum(rhs),rhsMax =  -6.11871664446539E-14  5.37257168739690E-01
 cg2d: Sum(rhs),rhsMax =  -2.39475106411646E-13  5.37969431142975E-01
 cg2d: Sum(rhs),rhsMax =   7.87078735520197E-14  5.38611610248835E-01
 cg2d: Sum(rhs),rhsMax =   3.09710590506995E-13  5.39251319182739E-01
 cg2d: Sum(rhs),rhsMax =  -2.36415054200023E-13  5.39887695075544E-01
 cg2d: Sum(rhs),rhsMax =  -1.09474929121944E-13  5.40520396350499E-01
 cg2d: Sum(rhs),rhsMax =   2.98754077032726E-13  5.41149886429019E-01
 cg2d: Sum(rhs),rhsMax =  -5.49352230372335E-14  5.41776246331351E-01
 cg2d: Sum(rhs),rhsMax =   2.93001733986387E-13  5.42399729247554E-01
 cg2d: Sum(rhs),rhsMax =   1.22263310586845E-13  5.43020186148798E-01
 cg2d: Sum(rhs),rhsMax =  -1.11639864019963E-13  5.43637745192482E-01
 cg2d: Sum(rhs),rhsMax =  -1.07046316255577E-13  5.44251471315936E-01
 cg2d: Sum(rhs),rhsMax =   3.22124271701085E-13  5.44861480791024E-01
 cg2d: Sum(rhs),rhsMax =   1.12958253861706E-13  5.45467431162855E-01
 cg2d: Sum(rhs),rhsMax =   4.18762247100801E-14  5.46069491150197E-01
 cg2d: Sum(rhs),rhsMax =  -3.30159510841810E-13  5.46667278927580E-01
 cg2d: Sum(rhs),rhsMax =   6.43859965343552E-14  5.47261018855294E-01
 cg2d: Sum(rhs),rhsMax =   2.11122785920281E-13  5.47850395974689E-01
 cg2d: Sum(rhs),rhsMax =  -1.04277697587918E-13  5.48435627172120E-01
 cg2d: Sum(rhs),rhsMax =   2.00131577976492E-13  5.49016460609850E-01
 cg2d: Sum(rhs),rhsMax =   6.37684349769074E-14  5.49591185038639E-01
 cg2d: Sum(rhs),rhsMax =  -2.46691556071710E-13  5.50159211052270E-01
 cg2d: Sum(rhs),rhsMax =   2.12822814926739E-13  5.50715841494000E-01
 cg2d: Sum(rhs),rhsMax =  -1.95815585968262E-13  5.51266646127971E-01
 cg2d: Sum(rhs),rhsMax =   4.96616636702640E-14  5.51812810589587E-01
 cg2d: Sum(rhs),rhsMax =   3.46597750500166E-14  5.52354121278104E-01
 cg2d: Sum(rhs),rhsMax =  -2.50389986522492E-13  5.52890933379692E-01
 cg2d: Sum(rhs),rhsMax =  -4.66154892464488E-14  5.53423459942700E-01
 cg2d: Sum(rhs),rhsMax =   6.70366540056477E-14  5.53952248519722E-01
 cg2d: Sum(rhs),rhsMax =  -9.98368054894172E-14  5.54477009451940E-01
 cg2d: Sum(rhs),rhsMax =  -1.00919272938427E-13  5.54998264421778E-01
 cg2d: Sum(rhs),rhsMax =  -1.51351153832024E-13  5.55516080736272E-01
 cg2d: Sum(rhs),rhsMax =   1.34607602841896E-13  5.56030836671292E-01
 cg2d: Sum(rhs),rhsMax =   6.68978761275696E-14  5.56542565415858E-01
 cg2d: Sum(rhs),rhsMax =   1.28647092978440E-13  5.57054042154827E-01
 cg2d: Sum(rhs),rhsMax =  -1.05623843005276E-13  5.57562970991778E-01
 cg2d: Sum(rhs),rhsMax =  -1.06699371560381E-13  5.58068667643131E-01
 cg2d: Sum(rhs),rhsMax =   2.08291717207487E-13  5.58571048884507E-01
 cg2d: Sum(rhs),rhsMax =  -3.67900154785161E-14  5.59070502570960E-01
 cg2d: Sum(rhs),rhsMax =   2.90323320939478E-14  5.59567406701906E-01
 cg2d: Sum(rhs),rhsMax =   1.26773591624385E-14  5.60061993261503E-01
 cg2d: Sum(rhs),rhsMax =   2.83148504642838E-13  5.60553968293200E-01
 cg2d: Sum(rhs),rhsMax =  -1.56298585185510E-13  5.61041238769758E-01
 cg2d: Sum(rhs),rhsMax =  -5.13616926767213E-14  5.61521508042116E-01
 cg2d: Sum(rhs),rhsMax =  -8.69720961915732E-14  5.61992793432372E-01
 cg2d: Sum(rhs),rhsMax =  -2.98885916016900E-13  5.62454411697949E-01
 cg2d: Sum(rhs),rhsMax =  -3.61516372393567E-13  5.62905225232278E-01
 cg2d: Sum(rhs),rhsMax =  -4.65322225196019E-14  5.63344052332514E-01
 cg2d: Sum(rhs),rhsMax =   9.63118473862323E-15  5.63770268999417E-01
 cg2d: Sum(rhs),rhsMax =  -9.16836051523262E-14  5.64183471569158E-01
 cg2d: Sum(rhs),rhsMax =  -2.48114029322011E-13  5.64583459062082E-01
 cg2d: Sum(rhs),rhsMax =   2.41057174221737E-14  5.64969353545924E-01
 cg2d: Sum(rhs),rhsMax =   1.30971622436249E-13  5.65342583856709E-01
 cg2d: Sum(rhs),rhsMax =  -8.01581023779363E-14  5.65703630372226E-01
 cg2d: Sum(rhs),rhsMax =   1.57970858616352E-13  5.66053445505540E-01
 cg2d: Sum(rhs),rhsMax =   1.73756842247741E-13  5.66392941842948E-01
 cg2d: Sum(rhs),rhsMax =   2.38260799978463E-13  5.66722870026325E-01
 cg2d: Sum(rhs),rhsMax =   1.58817403672629E-13  5.67044203438360E-01
 cg2d: Sum(rhs),rhsMax =  -6.24500451351651E-14  5.67356686123985E-01
 cg2d: Sum(rhs),rhsMax =  -9.35779231880929E-14  5.67659202463019E-01
 cg2d: Sum(rhs),rhsMax =  -2.14682438492986E-13  5.67952428233665E-01
 cg2d: Sum(rhs),rhsMax =   1.15213394380476E-13  5.68237451538623E-01
 cg2d: Sum(rhs),rhsMax =  -5.37209166040498E-14  5.68514975089655E-01
 cg2d: Sum(rhs),rhsMax =   1.30867539027690E-14  5.68786365155491E-01
 cg2d: Sum(rhs),rhsMax =   9.09480823985120E-14  5.69052031726076E-01
 cg2d: Sum(rhs),rhsMax =   3.68656494220687E-13  5.69312566151448E-01
 cg2d: Sum(rhs),rhsMax =  -1.18245691016483E-13  5.69568472728470E-01
 cg2d: Sum(rhs),rhsMax =  -1.00044972306534E-13  5.69820153661328E-01
 cg2d: Sum(rhs),rhsMax =  -3.44516082328994E-14  5.70068102154554E-01
 cg2d: Sum(rhs),rhsMax =  -1.14998288669454E-13  5.70312471287651E-01
 cg2d: Sum(rhs),rhsMax =   1.05193631583234E-14  5.70553716632085E-01
 cg2d: Sum(rhs),rhsMax =   1.28577704039401E-14  5.70791604433290E-01
 cg2d: Sum(rhs),rhsMax =   1.46140044510190E-13  5.71026878757017E-01
 cg2d: Sum(rhs),rhsMax =  -1.48402123922864E-13  5.71259627376399E-01
 cg2d: Sum(rhs),rhsMax =   3.14651082966577E-13  5.71491839722416E-01
 cg2d: Sum(rhs),rhsMax =   2.78888023785839E-13  5.71721430317457E-01
 cg2d: Sum(rhs),rhsMax =   9.90665882660835E-14  5.71949589426270E-01
 cg2d: Sum(rhs),rhsMax =  -6.48092690624935E-15  5.72176781054028E-01
 cg2d: Sum(rhs),rhsMax =   4.08423295183979E-14  5.72402139092763E-01
 cg2d: Sum(rhs),rhsMax =  -5.73568970096971E-14  5.72625891319094E-01
 cg2d: Sum(rhs),rhsMax =  -3.68455266297474E-15  5.72848632417328E-01
 cg2d: Sum(rhs),rhsMax =   9.64159307947909E-14  5.73067778950455E-01
 cg2d: Sum(rhs),rhsMax =   1.54862234147402E-13  5.73289068982217E-01
 cg2d: Sum(rhs),rhsMax =   6.25888230132432E-15  5.73506273265033E-01
 cg2d: Sum(rhs),rhsMax =   3.33295890886376E-13  5.73719098922472E-01
 cg2d: Sum(rhs),rhsMax =   3.00384717100144E-14  5.73925377129600E-01
 cg2d: Sum(rhs),rhsMax =   1.62196645003831E-13  5.74122314049317E-01
 cg2d: Sum(rhs),rhsMax =   1.08434095036358E-13  5.74308273111814E-01
 cg2d: Sum(rhs),rhsMax =  -2.56739074444567E-16  5.74482214222731E-01
 cg2d: Sum(rhs),rhsMax =   1.93296767481144E-13  5.74484602063329E-01
 cg2d: Sum(rhs),rhsMax =   2.50799381262823E-13  5.74403165152614E-01
 cg2d: Sum(rhs),rhsMax =  -3.93261812003942E-13  5.74307240960018E-01
 cg2d: Sum(rhs),rhsMax =  -2.57030507988532E-13  5.74197057153106E-01
 cg2d: Sum(rhs),rhsMax =  -1.49130707782774E-13  5.74072535876610E-01
 cg2d: Sum(rhs),rhsMax =   1.40998324127395E-13  5.73934324904825E-01
 cg2d: Sum(rhs),rhsMax =  -5.59413626533001E-14  5.73783253927611E-01
 cg2d: Sum(rhs),rhsMax =  -1.46826995006677E-13  5.73620364921104E-01
 cg2d: Sum(rhs),rhsMax =   6.78346268045971E-14  5.73444842597648E-01
 cg2d: Sum(rhs),rhsMax =   6.62941923579297E-14  5.73257060352885E-01
 cg2d: Sum(rhs),rhsMax =   2.11511363978900E-13  5.73058829437656E-01
 cg2d: Sum(rhs),rhsMax =   1.50233991913495E-13  5.72851646991395E-01
 cg2d: Sum(rhs),rhsMax =   4.01068067645838E-15  5.72637133619486E-01
 cg2d: Sum(rhs),rhsMax =  -4.42840208947359E-14  5.72416668711514E-01
 cg2d: Sum(rhs),rhsMax =   2.30253316413354E-13  5.72191598690051E-01
 cg2d: Sum(rhs),rhsMax =   1.07067132937289E-14  5.72000474044197E-01
 cg2d: Sum(rhs),rhsMax =  -2.83453815974610E-14  5.71807432772820E-01
 cg2d: Sum(rhs),rhsMax =  -6.94513890842074E-14  5.71447627055026E-01
 cg2d: Sum(rhs),rhsMax =  -9.05803210216050E-14  5.71086918250598E-01
 cg2d: Sum(rhs),rhsMax =   1.55958579384219E-13  5.70727398021818E-01
 cg2d: Sum(rhs),rhsMax =   1.53488333154428E-13  5.70371199326665E-01
 cg2d: Sum(rhs),rhsMax =  -5.44425615700561E-14  5.70019114218940E-01
 cg2d: Sum(rhs),rhsMax =  -1.75498504617622E-13  5.69671471172253E-01
 cg2d: Sum(rhs),rhsMax =   5.69128077998471E-14  5.69329025530471E-01
 cg2d: Sum(rhs),rhsMax =   1.71931913151013E-13  5.68991623194624E-01
 cg2d: Sum(rhs),rhsMax =   1.03028696685215E-13  5.68659282349962E-01
 cg2d: Sum(rhs),rhsMax =   1.02425012915575E-13  5.68332710103290E-01
 cg2d: Sum(rhs),rhsMax =   7.66955943198866E-14  5.68010989692289E-01
 cg2d: Sum(rhs),rhsMax =   3.26377813664180E-13  5.67693660755741E-01
 cg2d: Sum(rhs),rhsMax =   1.47992729182533E-13  5.67380660472277E-01
 cg2d: Sum(rhs),rhsMax =  -1.96689886600154E-13  5.67069266201287E-01
 cg2d: Sum(rhs),rhsMax =   1.77954873059605E-13  5.66758451489513E-01
 cg2d: Sum(rhs),rhsMax =  -1.04173614179359E-13  5.66302555377914E-01
 cg2d: Sum(rhs),rhsMax =  -7.54465934171833E-14  5.65795650976100E-01
 cg2d: Sum(rhs),rhsMax =  -1.25184584920390E-13  5.65290661386213E-01
 cg2d: Sum(rhs),rhsMax =  -9.68738977924488E-14  5.64786181978883E-01
 cg2d: Sum(rhs),rhsMax =   6.56280585431546E-14  5.64281221058573E-01
 cg2d: Sum(rhs),rhsMax =   1.41504863382380E-13  5.63775925668555E-01
 cg2d: Sum(rhs),rhsMax =  -4.39440150934445E-14  5.63270036814422E-01
 cg2d: Sum(rhs),rhsMax =   2.74669176292264E-13  5.62763577184728E-01
 cg2d: Sum(rhs),rhsMax =   2.71019318098809E-13  5.62256627262893E-01
 cg2d: Sum(rhs),rhsMax =   2.76563494328030E-13  5.61749365034258E-01
 cg2d: Sum(rhs),rhsMax =  -6.73905375947470E-14  5.61242019434230E-01
 cg2d: Sum(rhs),rhsMax =   5.35196886808365E-14  5.60734928264289E-01
 cg2d: Sum(rhs),rhsMax =  -1.96564986509884E-13  5.60228481483935E-01
 cg2d: Sum(rhs),rhsMax =  -3.21645488021716E-13  5.59723178462162E-01
 cg2d: Sum(rhs),rhsMax =   1.86087256714984E-13  5.59219557284110E-01
 cg2d: Sum(rhs),rhsMax =  -1.91034688068470E-13  5.58715688156814E-01
 cg2d: Sum(rhs),rhsMax =   3.05720726512249E-13  5.58214035286285E-01
 cg2d: Sum(rhs),rhsMax =   1.84512127798797E-13  5.57713844760740E-01
 cg2d: Sum(rhs),rhsMax =   1.03042574473022E-13  5.57216325143662E-01
 cg2d: Sum(rhs),rhsMax =  -1.23991095168918E-13  5.56722624026134E-01
 cg2d: Sum(rhs),rhsMax =   1.56978596788093E-13  5.56233656788958E-01
 cg2d: Sum(rhs),rhsMax =  -8.75827188551170E-14  5.55750124241293E-01
 cg2d: Sum(rhs),rhsMax =  -3.13422898745586E-13  5.55272783323291E-01
 cg2d: Sum(rhs),rhsMax =   2.10526041044545E-14  5.54802358326746E-01
 cg2d: Sum(rhs),rhsMax =   3.22609994274359E-13  5.54339308440319E-01
 cg2d: Sum(rhs),rhsMax =  -1.21638810135494E-14  5.53884040673348E-01
 cg2d: Sum(rhs),rhsMax =  -5.34919331052208E-14  5.53437019684690E-01
 cg2d: Sum(rhs),rhsMax =   1.87905246917808E-14  5.52998454222998E-01
 cg2d: Sum(rhs),rhsMax =  -5.63507573936306E-14  5.52568558947480E-01
 cg2d: Sum(rhs),rhsMax =   1.41976708167846E-13  5.52162820794038E-01
 cg2d: Sum(rhs),rhsMax =   6.38600283764390E-13  5.51766042632870E-01
 cg2d: Sum(rhs),rhsMax =   6.83134104839667E-14  5.51376945423047E-01
 cg2d: Sum(rhs),rhsMax =   9.19680998023864E-14  5.50995010304741E-01
 cg2d: Sum(rhs),rhsMax =  -1.82402704052009E-13  5.50619760616638E-01
 cg2d: Sum(rhs),rhsMax =  -5.07024977558501E-14  5.50250756915954E-01
 cg2d: Sum(rhs),rhsMax =  -9.77967706816685E-14  5.49887901054953E-01
 cg2d: Sum(rhs),rhsMax =   2.54192500381833E-13  5.49530137078217E-01
 cg2d: Sum(rhs),rhsMax =  -2.50355292052973E-14  5.49176389474479E-01
 cg2d: Sum(rhs),rhsMax =  -4.22245571840563E-13  5.48826089150999E-01
 cg2d: Sum(rhs),rhsMax =  -2.32022734358850E-13  5.48483015088129E-01
 cg2d: Sum(rhs),rhsMax =  -1.46972711778659E-13  5.48150612885644E-01
 cg2d: Sum(rhs),rhsMax =  -2.79498646449383E-14  5.47819322510341E-01
 cg2d: Sum(rhs),rhsMax =   6.32341401463066E-14  5.47488410445189E-01
 cg2d: Sum(rhs),rhsMax =   1.24691923453213E-14  5.47157555801425E-01
 cg2d: Sum(rhs),rhsMax =   2.47440956613332E-13  5.46826475425718E-01
 cg2d: Sum(rhs),rhsMax =  -3.13360448700450E-14  5.46495067679042E-01
 cg2d: Sum(rhs),rhsMax =   2.41043296433929E-13  5.46163284101659E-01
 cg2d: Sum(rhs),rhsMax =  -5.91332538490974E-14  5.45831304849206E-01
 cg2d: Sum(rhs),rhsMax =  -1.28452803949131E-13  5.45499371637149E-01
 cg2d: Sum(rhs),rhsMax =  -3.13866987955436E-13  5.45124164428491E-01
 cg2d: Sum(rhs),rhsMax =   5.53168622019484E-14  5.44746968211144E-01
 cg2d: Sum(rhs),rhsMax =  -2.86888568457044E-13  5.44369653838633E-01
 cg2d: Sum(rhs),rhsMax =  -2.09339490186977E-13  5.43992954880899E-01
 cg2d: Sum(rhs),rhsMax =   1.72688252586539E-13  5.43616643388177E-01
 cg2d: Sum(rhs),rhsMax =  -2.36352604154888E-13  5.43240049671287E-01
 cg2d: Sum(rhs),rhsMax =   3.14123727029880E-14  5.42864335676077E-01
 cg2d: Sum(rhs),rhsMax =   7.59114993087451E-15  5.42491607487284E-01
 cg2d: Sum(rhs),rhsMax =  -1.90611415540332E-13  5.42123062858515E-01
 cg2d: Sum(rhs),rhsMax =   4.41278957818980E-13  5.41759476413824E-01
 cg2d: Sum(rhs),rhsMax =  -7.17065296029773E-14  5.41401560207458E-01
 cg2d: Sum(rhs),rhsMax =  -9.09827768680316E-14  5.41049917270723E-01
 cg2d: Sum(rhs),rhsMax =   1.92533489151714E-13  5.40705059764986E-01
 cg2d: Sum(rhs),rhsMax =  -9.01292929178510E-14  5.40367476323287E-01
 cg2d: Sum(rhs),rhsMax =   1.20292664718136E-13  5.40037709120433E-01
 cg2d: Sum(rhs),rhsMax =  -9.89347492819093E-14  5.39715691423166E-01
 cg2d: Sum(rhs),rhsMax =   2.30676588941492E-13  5.39401781637583E-01
 cg2d: Sum(rhs),rhsMax =  -1.20112253476634E-14  5.39095494023074E-01
 cg2d: Sum(rhs),rhsMax =   1.29382615732254E-13  5.38796940583505E-01
 cg2d: Sum(rhs),rhsMax =  -4.86277684785819E-14  5.38505537971882E-01
 cg2d: Sum(rhs),rhsMax =   1.39638300922229E-13  5.38220912665023E-01
 cg2d: Sum(rhs),rhsMax =  -1.16032183861137E-13  5.37942498539618E-01
 cg2d: Sum(rhs),rhsMax =   1.92401650167540E-13  5.37669554084149E-01
 cg2d: Sum(rhs),rhsMax =   1.75949532721376E-13  5.37401548737596E-01
 cg2d: Sum(rhs),rhsMax =  -7.92421683826205E-14  5.37138082478780E-01
 cg2d: Sum(rhs),rhsMax =  -1.03625441560951E-13  5.36878954212432E-01
 cg2d: Sum(rhs),rhsMax =  -1.37889699658444E-13  5.36622850811214E-01
 cg2d: Sum(rhs),rhsMax =  -2.17326157070374E-14  5.36367369433890E-01
 cg2d: Sum(rhs),rhsMax =   9.75886038645513E-14  5.36111680867411E-01
 cg2d: Sum(rhs),rhsMax =  -1.94046168022766E-13  5.35855385842206E-01
 cg2d: Sum(rhs),rhsMax =   1.30569166589822E-13  5.35597956129232E-01
 cg2d: Sum(rhs),rhsMax =   1.43704492749919E-14  5.35305819330015E-01
 cg2d: Sum(rhs),rhsMax =  -5.97785709821608E-14  5.35011916847673E-01
 cg2d: Sum(rhs),rhsMax =  -4.62963001268690E-14  5.34716849471426E-01
 cg2d: Sum(rhs),rhsMax =   5.94663207564849E-14  5.34420065174375E-01
 cg2d: Sum(rhs),rhsMax =  -1.17329757021167E-13  5.34121673041209E-01
 cg2d: Sum(rhs),rhsMax =  -5.70168912084057E-14  5.33821855244246E-01
 cg2d: Sum(rhs),rhsMax =  -2.42514341941558E-14  5.33520900766956E-01
 cg2d: Sum(rhs),rhsMax =   1.91388571657569E-13  5.33219213578376E-01
 cg2d: Sum(rhs),rhsMax =   3.00287572585489E-13  5.32917516469073E-01
 cg2d: Sum(rhs),rhsMax =  -1.01980923705725E-13  5.32616293147926E-01
 cg2d: Sum(rhs),rhsMax =   1.07525099934946E-13  5.32316237466475E-01
 cg2d: Sum(rhs),rhsMax =   2.52221854513124E-13  5.32018015588360E-01
 cg2d: Sum(rhs),rhsMax =   7.21991910701547E-14  5.31720074414994E-01
 cg2d: Sum(rhs),rhsMax =   2.58883192660875E-13  5.31423446802180E-01
 cg2d: Sum(rhs),rhsMax =   2.23390750342389E-13  5.31129377183074E-01
 cg2d: Sum(rhs),rhsMax =  -4.47072934228743E-14  5.30839770748710E-01
 cg2d: Sum(rhs),rhsMax =  -1.39416256317304E-13  5.30555398913502E-01
 cg2d: Sum(rhs),rhsMax =   6.68839983397618E-14  5.30276991806672E-01
 cg2d: Sum(rhs),rhsMax =  -1.15137066547533E-13  5.30005212495310E-01
 cg2d: Sum(rhs),rhsMax =  -2.05745143144753E-13  5.29740633471822E-01
 cg2d: Sum(rhs),rhsMax =   1.20958798532911E-13  5.29483755500288E-01
 cg2d: Sum(rhs),rhsMax =  -4.57134330389408E-14  5.29235008128656E-01
 cg2d: Sum(rhs),rhsMax =   1.95801708180454E-13  5.28994646130118E-01
 cg2d: Sum(rhs),rhsMax =   8.83182416089312E-14  5.28762781754744E-01
 cg2d: Sum(rhs),rhsMax =   1.39270539545322E-13  5.28539461135834E-01
 cg2d: Sum(rhs),rhsMax =  -1.07615305555697E-13  5.28324658192184E-01
 cg2d: Sum(rhs),rhsMax =  -4.64697724744667E-14  5.28118260873929E-01
 cg2d: Sum(rhs),rhsMax =  -1.09801057135428E-13  5.27919924175855E-01
 cg2d: Sum(rhs),rhsMax =   5.26592658367520E-14  5.27729330852318E-01
 cg2d: Sum(rhs),rhsMax =  -4.70734562441066E-14  5.27545981937955E-01
 cg2d: Sum(rhs),rhsMax =  -2.89351875792931E-14  5.27369400458571E-01
 cg2d: Sum(rhs),rhsMax =  -9.26411725110654E-14  5.27199840353354E-01
 cg2d: Sum(rhs),rhsMax =   4.17235690441942E-14  5.27037123206271E-01
 cg2d: Sum(rhs),rhsMax =  -1.96440086419614E-13  5.26880550530805E-01
 cg2d: Sum(rhs),rhsMax =  -9.14754383352090E-14  5.26728948927812E-01
 cg2d: Sum(rhs),rhsMax =   1.96648253236731E-14  5.26580319530679E-01
 cg2d: Sum(rhs),rhsMax =  -5.86336534880161E-15  5.26433040708194E-01
 cg2d: Sum(rhs),rhsMax =   1.39589728664902E-13  5.26287426429278E-01
 cg2d: Sum(rhs),rhsMax =  -4.27782809175881E-13  5.26142776222460E-01
 cg2d: Sum(rhs),rhsMax =   1.70599645521463E-13  5.25997617442599E-01
 cg2d: Sum(rhs),rhsMax =   6.83481049534862E-15  5.25853107376886E-01
 cg2d: Sum(rhs),rhsMax =  -5.60593238496665E-14  5.25712210707566E-01
 cg2d: Sum(rhs),rhsMax =   2.16507367589713E-13  5.25570968105170E-01
 cg2d: Sum(rhs),rhsMax =  -3.04617442381527E-15  5.25429116173691E-01
 cg2d: Sum(rhs),rhsMax =  -1.69031455499180E-14  5.25286636708726E-01
 cg2d: Sum(rhs),rhsMax =  -4.45407599691805E-14  5.25143248015544E-01
 cg2d: Sum(rhs),rhsMax =   7.91311460801580E-14  5.24999349500585E-01
 cg2d: Sum(rhs),rhsMax =   2.37129760272126E-13  5.24855644174855E-01
 cg2d: Sum(rhs),rhsMax =   9.83796377695967E-14  5.24710983584476E-01
 cg2d: Sum(rhs),rhsMax =   6.07153216591882E-15  5.24566898160907E-01
 cg2d: Sum(rhs),rhsMax =   1.12243547789603E-13  5.24421863263341E-01
 cg2d: Sum(rhs),rhsMax =  -4.08749423197463E-13  5.24274998934872E-01
 cg2d: Sum(rhs),rhsMax =  -6.18394224716212E-14  5.24129228297471E-01
 cg2d: Sum(rhs),rhsMax =   1.10647602191705E-13  5.23995179061120E-01
 cg2d: Sum(rhs),rhsMax =  -1.30950805754537E-13  5.23861881878684E-01
 cg2d: Sum(rhs),rhsMax =   1.83880688453542E-14  5.23732377821365E-01
 cg2d: Sum(rhs),rhsMax =   1.27113597425677E-13  5.23604774442438E-01
 cg2d: Sum(rhs),rhsMax =   1.25635613024144E-13  5.23482215076756E-01
 cg2d: Sum(rhs),rhsMax =  -2.36477504245158E-14  5.23363310853390E-01
 cg2d: Sum(rhs),rhsMax =  -2.28803087587437E-13  5.23249760552497E-01
 cg2d: Sum(rhs),rhsMax =   1.94372296036249E-13  5.23141417688648E-01
 cg2d: Sum(rhs),rhsMax =  -2.96450364256629E-13  5.23039819047586E-01
 cg2d: Sum(rhs),rhsMax =   2.52825538282764E-13  5.22945011234617E-01
 cg2d: Sum(rhs),rhsMax =  -3.32227301225174E-13  5.22859578966337E-01
 cg2d: Sum(rhs),rhsMax =  -1.29139754445617E-13  5.22782173788001E-01
 cg2d: Sum(rhs),rhsMax =  -1.26787469412193E-13  5.22711628692475E-01
 cg2d: Sum(rhs),rhsMax =   3.90430743291148E-13  5.22648343159460E-01
 cg2d: Sum(rhs),rhsMax =   1.34565969478473E-13  5.22601638897922E-01
 cg2d: Sum(rhs),rhsMax =   8.20107870502795E-14  5.22564208795916E-01
 cg2d: Sum(rhs),rhsMax =  -4.95173346770628E-13  5.22534178239859E-01
 cg2d: Sum(rhs),rhsMax =  -3.01980662698043E-14  5.22511664990374E-01
 cg2d: Sum(rhs),rhsMax =   1.98861760392077E-13  5.22496345013012E-01
 cg2d: Sum(rhs),rhsMax =   2.11358708313014E-13  5.22487650683786E-01
 cg2d: Sum(rhs),rhsMax =   2.35679531446209E-13  5.22483473460283E-01
 cg2d: Sum(rhs),rhsMax =  -2.51694498576427E-13  5.22482357548591E-01
 cg2d: Sum(rhs),rhsMax =  -1.22374332889308E-13  5.22484087707566E-01
 cg2d: Sum(rhs),rhsMax =   4.84959294944076E-14  5.22487659748378E-01
 cg2d: Sum(rhs),rhsMax =   2.36040353929212E-13  5.22492511627962E-01
 cg2d: Sum(rhs),rhsMax =   5.61078961069938E-14  5.22498135275143E-01
 cg2d: Sum(rhs),rhsMax =  -2.03233263551539E-13  5.22504062922010E-01
 cg2d: Sum(rhs),rhsMax =   7.38992200766120E-15  5.22509944719510E-01
 cg2d: Sum(rhs),rhsMax =   1.45786160921091E-13  5.22515483491782E-01
 cg2d: Sum(rhs),rhsMax =   8.21287482466460E-14  5.22520025839837E-01
 cg2d: Sum(rhs),rhsMax =   2.66731081666194E-13  5.22523140321364E-01
 cg2d: Sum(rhs),rhsMax =   1.30957744648441E-13  5.22524745864014E-01
 cg2d: Sum(rhs),rhsMax =   1.35440270110365E-13  5.22524839659785E-01
 cg2d: Sum(rhs),rhsMax =   1.09461051334137E-13  5.22523494518061E-01
 cg2d: Sum(rhs),rhsMax =   1.52287904509052E-13  5.22518763899289E-01
 cg2d: Sum(rhs),rhsMax =  -3.82326115211384E-13  5.22510753064199E-01
 cg2d: Sum(rhs),rhsMax =   2.73558953267639E-13  5.22500679501663E-01
 cg2d: Sum(rhs),rhsMax =  -2.79637424327461E-15  5.22489680793748E-01
 cg2d: Sum(rhs),rhsMax =   1.42982847783912E-13  5.22478241950262E-01
 cg2d: Sum(rhs),rhsMax =   5.91610094247130E-14  5.22467351234563E-01
 cg2d: Sum(rhs),rhsMax =  -2.38885300429814E-13  5.22457593204925E-01
 cg2d: Sum(rhs),rhsMax =  -1.49144585570582E-13  5.22449507734307E-01
 cg2d: Sum(rhs),rhsMax =  -7.43849426498855E-14  5.22443663648996E-01
 cg2d: Sum(rhs),rhsMax =   1.20937981851199E-13  5.22440585915794E-01
 cg2d: Sum(rhs),rhsMax =  -1.77059755746001E-13  5.22440587033325E-01
 cg2d: Sum(rhs),rhsMax =   9.40844624430781E-14  5.22430621718387E-01
 cg2d: Sum(rhs),rhsMax =  -1.44752265729409E-13  5.22423406217853E-01
 cg2d: Sum(rhs),rhsMax =  -2.44963771489637E-13  5.22419329886786E-01
 cg2d: Sum(rhs),rhsMax =  -2.42486586365942E-13  5.22418615067295E-01
 cg2d: Sum(rhs),rhsMax =   8.05328026487473E-14  5.22421226382297E-01
 cg2d: Sum(rhs),rhsMax =  -6.98399671428263E-14  5.22427016563463E-01
 cg2d: Sum(rhs),rhsMax =  -8.22258927613007E-15  5.22435567694301E-01
 cg2d: Sum(rhs),rhsMax =  -1.55146728797462E-13  5.22446640497870E-01
 cg2d: Sum(rhs),rhsMax =  -8.91647866652079E-14  5.22460035232048E-01
 cg2d: Sum(rhs),rhsMax =   1.47784562365416E-13  5.22476262796378E-01
 cg2d: Sum(rhs),rhsMax =  -3.44099748694759E-14  5.22496217955983E-01
 cg2d: Sum(rhs),rhsMax =   1.91770210822284E-13  5.22520544703499E-01
 cg2d: Sum(rhs),rhsMax =   2.38836728172487E-13  5.22548924361819E-01
 cg2d: Sum(rhs),rhsMax =   7.79931674799172E-15  5.22580949520166E-01
 cg2d: Sum(rhs),rhsMax =   6.12912498532125E-14  5.22614825884249E-01
 cg2d: Sum(rhs),rhsMax =   2.37074249120894E-13  5.22650700228463E-01
 cg2d: Sum(rhs),rhsMax =  -2.34000319121463E-13  5.22687669683528E-01
 cg2d: Sum(rhs),rhsMax =  -1.51524626179622E-13  5.22724506139290E-01
 cg2d: Sum(rhs),rhsMax =   7.42184091961917E-14  5.22760656373462E-01
 cg2d: Sum(rhs),rhsMax =   2.98233659989933E-14  5.22795727315100E-01
 cg2d: Sum(rhs),rhsMax =   1.01293973209238E-13  5.22829326164117E-01
 cg2d: Sum(rhs),rhsMax =   4.25909307821826E-14  5.22861118128790E-01
 cg2d: Sum(rhs),rhsMax =  -6.09234884763055E-15  5.22890837865661E-01
 cg2d: Sum(rhs),rhsMax =  -1.40831790673701E-13  5.22918275229870E-01
 cg2d: Sum(rhs),rhsMax =  -2.55795384873636E-13  5.22948613605526E-01
 cg2d: Sum(rhs),rhsMax =   1.67157954145125E-14  5.22976144397381E-01
 cg2d: Sum(rhs),rhsMax =  -3.26128013483640E-14  5.22999191369723E-01
 cg2d: Sum(rhs),rhsMax =   1.78634884662188E-13  5.23016686013776E-01
 cg2d: Sum(rhs),rhsMax =   7.52939377512973E-14  5.23028418261159E-01
 cg2d: Sum(rhs),rhsMax =  -1.33192068485499E-13  5.23034696659850E-01
 cg2d: Sum(rhs),rhsMax =  -4.27158308724529E-14  5.23036231037973E-01
 cg2d: Sum(rhs),rhsMax =  -6.16520723362157E-14  5.23033433837245E-01
 cg2d: Sum(rhs),rhsMax =  -2.02123040526914E-13  5.23027169806447E-01
 cg2d: Sum(rhs),rhsMax =   1.11036180250323E-13  5.23018273723096E-01
 cg2d: Sum(rhs),rhsMax =   2.15452655716319E-14  5.23007406314371E-01
 cg2d: Sum(rhs),rhsMax =   2.11983208764366E-14  5.22995278096200E-01
 cg2d: Sum(rhs),rhsMax =   1.25323362798468E-13  5.22982625806302E-01
 cg2d: Sum(rhs),rhsMax =   2.86992651865603E-14  5.22970258050488E-01
 cg2d: Sum(rhs),rhsMax =   1.40602807174872E-13  5.22958915220108E-01
 cg2d: Sum(rhs),rhsMax =   5.53168622019484E-14  5.22949300449021E-01
 cg2d: Sum(rhs),rhsMax =  -2.72011579927067E-13  5.22942003229257E-01
 cg2d: Sum(rhs),rhsMax =   2.84154644258905E-13  5.22937574696612E-01
 cg2d: Sum(rhs),rhsMax =  -2.88935542158697E-14  5.22936444065380E-01
 cg2d: Sum(rhs),rhsMax =  -1.01342545466565E-13  5.22938958190165E-01
 cg2d: Sum(rhs),rhsMax =   5.55944179581047E-14  5.22945342324226E-01
 cg2d: Sum(rhs),rhsMax =   6.36921071439644E-14  5.22955353661583E-01
 cg2d: Sum(rhs),rhsMax =  -5.81340531269348E-14  5.22968678035761E-01
 cg2d: Sum(rhs),rhsMax =  -7.18522463749593E-14  5.22985800838735E-01
 cg2d: Sum(rhs),rhsMax =  -2.58189303270484E-13  5.23006732910476E-01
 cg2d: Sum(rhs),rhsMax =  -1.63674629405364E-13  5.23031768308428E-01
 cg2d: Sum(rhs),rhsMax =   6.37406794012918E-14  5.23060994183690E-01
 cg2d: Sum(rhs),rhsMax =   2.20677642825962E-13  5.23094089887813E-01
 cg2d: Sum(rhs),rhsMax =  -5.49144063555218E-14  5.23130541651538E-01
 cg2d: Sum(rhs),rhsMax =   7.32400251557408E-14  5.23168574750351E-01
 cg2d: Sum(rhs),rhsMax =   2.50702236748168E-14  5.23207316569287E-01
 cg2d: Sum(rhs),rhsMax =   1.07691633388640E-13  5.23246031611795E-01
 cg2d: Sum(rhs),rhsMax =   2.72303013471031E-13  5.23283696522281E-01
 cg2d: Sum(rhs),rhsMax =   1.37750921780366E-13  5.23319878036845E-01
 cg2d: Sum(rhs),rhsMax =  -9.62979695984245E-14  5.23354131119885E-01
 cg2d: Sum(rhs),rhsMax =   5.50046119762726E-14  5.23386132179126E-01
 cg2d: Sum(rhs),rhsMax =   2.75821032680312E-14  5.23415543243830E-01
 cg2d: Sum(rhs),rhsMax =  -9.43620181992344E-14  5.23442164670716E-01
 cg2d: Sum(rhs),rhsMax =   1.92436344637059E-13  5.23465919364452E-01
 cg2d: Sum(rhs),rhsMax =   1.12687636999453E-14  5.23486537846024E-01
 cg2d: Sum(rhs),rhsMax =  -1.72445391299902E-13  5.23502448580952E-01
 cg2d: Sum(rhs),rhsMax =  -3.01147995429574E-14  5.23513343425951E-01
 cg2d: Sum(rhs),rhsMax =  -1.58276169948124E-13  5.23519397571431E-01
 cg2d: Sum(rhs),rhsMax =  -8.46336889459565E-14  5.23521208255922E-01
 cg2d: Sum(rhs),rhsMax =   1.13173359572727E-14  5.23519423632094E-01
 cg2d: Sum(rhs),rhsMax =   2.82850132204970E-13  5.23514476491368E-01
 cg2d: Sum(rhs),rhsMax =  -1.60836621798666E-13  5.23506848497390E-01
 cg2d: Sum(rhs),rhsMax =  -3.77475828372553E-14  5.23497623754524E-01
 cg2d: Sum(rhs),rhsMax =   4.59625393300911E-13  5.23487377600945E-01
 cg2d: Sum(rhs),rhsMax =  -3.85178000605890E-14  5.23476691010358E-01
 cg2d: Sum(rhs),rhsMax =   2.55837018237060E-14  5.23466122737281E-01
 cg2d: Sum(rhs),rhsMax =   1.55153667691366E-13  5.23456219269216E-01
 cg2d: Sum(rhs),rhsMax =  -4.06591427193348E-13  5.23447518173438E-01
 cg2d: Sum(rhs),rhsMax =  -1.26232357899880E-13  5.23440491473390E-01
 cg2d: Sum(rhs),rhsMax =   1.45855549860130E-14  5.23435568115722E-01
 cg2d: Sum(rhs),rhsMax =   9.71722702303168E-14  5.23433099251587E-01
 cg2d: Sum(rhs),rhsMax =   5.33670330149505E-14  5.23433371091456E-01
 cg2d: Sum(rhs),rhsMax =  -4.17797740848158E-13  5.23436452413125E-01
 cg2d: Sum(rhs),rhsMax =   1.86538284818738E-13  5.23441575176156E-01
 cg2d: Sum(rhs),rhsMax =  -2.81920320421847E-13  5.23448837759496E-01
 cg2d: Sum(rhs),rhsMax =  -7.15053016797640E-14  5.23458291350796E-01
 cg2d: Sum(rhs),rhsMax =   1.57630852815061E-13  5.23470362965453E-01
 cg2d: Sum(rhs),rhsMax =   4.00304789316408E-14  5.23485031792929E-01
 cg2d: Sum(rhs),rhsMax =   1.64118718615214E-13  5.23502129271085E-01
 cg2d: Sum(rhs),rhsMax =  -1.92568183621233E-13  5.23521619492678E-01
 cg2d: Sum(rhs),rhsMax =  -1.24435184378768E-13  5.23543614010826E-01
 cg2d: Sum(rhs),rhsMax =   1.51684220739412E-13  5.23567330944504E-01
 cg2d: Sum(rhs),rhsMax =  -9.33281230075522E-15  5.23573220431889E-01
 cg2d: Sum(rhs),rhsMax =   2.51090814806787E-13  5.23579522837613E-01
 cg2d: Sum(rhs),rhsMax =   1.05443431763774E-13  5.23585496701706E-01
 cg2d: Sum(rhs),rhsMax =  -2.14522843933196E-13  5.23590731759557E-01
 cg2d: Sum(rhs),rhsMax =  -7.61612994892857E-14  5.23594194887402E-01
 cg2d: Sum(rhs),rhsMax =  -1.60225999135122E-13  5.23595720032975E-01
 cg2d: Sum(rhs),rhsMax =  -8.03385136194379E-14  5.23594947124009E-01
 cg2d: Sum(rhs),rhsMax =   3.14623327390962E-13  5.23591904720257E-01
 cg2d: Sum(rhs),rhsMax =   1.73722147778221E-13  5.23586541849544E-01
 cg2d: Sum(rhs),rhsMax =   2.91558444054374E-13  5.23578841127462E-01
 cg2d: Sum(rhs),rhsMax =   2.91801305341011E-13  5.23567413894913E-01
 cg2d: Sum(rhs),rhsMax =   6.60999033286203E-14  5.23552075223200E-01
 cg2d: Sum(rhs),rhsMax =  -1.42663658664333E-13  5.23532857300945E-01
 cg2d: Sum(rhs),rhsMax =  -1.41241185414032E-13  5.23509792660169E-01
 cg2d: Sum(rhs),rhsMax =   1.43378364736435E-13  5.23483378418338E-01
 cg2d: Sum(rhs),rhsMax =   4.32751057211078E-13  5.23454334703437E-01
 cg2d: Sum(rhs),rhsMax =  -1.78947134887864E-13  5.23422905537956E-01
 cg2d: Sum(rhs),rhsMax =   1.32921451623247E-13  5.23384428060210E-01
 cg2d: Sum(rhs),rhsMax =  -9.39803790345195E-14  5.23344869530530E-01
 cg2d: Sum(rhs),rhsMax =   2.15327755626049E-13  5.23304743519744E-01
 cg2d: Sum(rhs),rhsMax =   1.74978087574829E-13  5.23264572513732E-01
 cg2d: Sum(rhs),rhsMax =   9.86571935257530E-14  5.23224788436973E-01
 cg2d: Sum(rhs),rhsMax =  -1.92457161318771E-13  5.23185834206083E-01
 cg2d: Sum(rhs),rhsMax =  -5.09592368302947E-14  5.23148098221905E-01
 cg2d: Sum(rhs),rhsMax =  -7.11999903479921E-14  5.23269608147694E-01
 cg2d: Sum(rhs),rhsMax =   3.55930562800921E-13  5.23690071201746E-01
 cg2d: Sum(rhs),rhsMax =   1.29431187989582E-13  5.24107196420322E-01
 cg2d: Sum(rhs),rhsMax =  -1.60475799315662E-13  5.24520507473922E-01
 cg2d: Sum(rhs),rhsMax =   5.88071258356138E-14  5.24929520428074E-01
 cg2d: Sum(rhs),rhsMax =  -2.33979502439752E-14  5.25333746708295E-01
 cg2d: Sum(rhs),rhsMax =   7.83331732812087E-14  5.25732748370756E-01
 cg2d: Sum(rhs),rhsMax =  -2.49800180540660E-14  5.26127180889187E-01
 cg2d: Sum(rhs),rhsMax =  -2.07417416575595E-13  5.26518233935181E-01
 cg2d: Sum(rhs),rhsMax =   2.74787137488630E-13  5.26905896449472E-01
 cg2d: Sum(rhs),rhsMax =  -1.57790447374850E-14  5.27290371543023E-01
 cg2d: Sum(rhs),rhsMax =  -3.40831529666019E-13  5.27672226022883E-01
 cg2d: Sum(rhs),rhsMax =   2.19053941652447E-13  5.28051144573731E-01
 cg2d: Sum(rhs),rhsMax =   2.26360596933262E-13  5.28421744020355E-01
 cg2d: Sum(rhs),rhsMax =  -2.45484188532430E-13  5.28771099556691E-01
 cg2d: Sum(rhs),rhsMax =   6.85007606193722E-14  5.29116765836772E-01
 cg2d: Sum(rhs),rhsMax =   1.59296187351998E-13  5.29459594492042E-01
 cg2d: Sum(rhs),rhsMax =   4.75244843478606E-14  5.29799982234153E-01
 cg2d: Sum(rhs),rhsMax =   5.12576092681627E-14  5.30138490665179E-01
 cg2d: Sum(rhs),rhsMax =  -4.08215128366862E-14  5.30475575773817E-01
 cg2d: Sum(rhs),rhsMax =   7.48567874353512E-14  5.30811140225620E-01
 cg2d: Sum(rhs),rhsMax =  -2.09207651202803E-14  5.31146115900980E-01
 cg2d: Sum(rhs),rhsMax =  -2.26943464021190E-13  5.31480953628524E-01
 cg2d: Sum(rhs),rhsMax =   1.43024481147336E-13  5.31815329357607E-01
 cg2d: Sum(rhs),rhsMax =   4.17721413015215E-14  5.32148537025585E-01
 cg2d: Sum(rhs),rhsMax =  -2.22329099575092E-13  5.32480540407897E-01
 cg2d: Sum(rhs),rhsMax =  -6.61970478432750E-14  5.32811265472748E-01
 cg2d: Sum(rhs),rhsMax =   1.13561937631346E-13  5.33140437307485E-01
 cg2d: Sum(rhs),rhsMax =  -4.26464419334138E-14  5.33466716081426E-01
 cg2d: Sum(rhs),rhsMax =  -2.36741182213507E-13  5.33788771778474E-01
 cg2d: Sum(rhs),rhsMax =  -1.33067168395229E-13  5.34106161355815E-01
 cg2d: Sum(rhs),rhsMax =   5.38874500577435E-14  5.34418859666588E-01
 cg2d: Sum(rhs),rhsMax =  -8.33846880432532E-14  5.34728384981114E-01
 cg2d: Sum(rhs),rhsMax =   1.83270065789998E-13  5.35033851822401E-01
 cg2d: Sum(rhs),rhsMax =  -1.20514709323061E-13  5.35348895858937E-01
 cg2d: Sum(rhs),rhsMax =   1.08663078535187E-14  5.35659033047199E-01
 cg2d: Sum(rhs),rhsMax =  -2.12052597703405E-13  5.35963045809772E-01
 cg2d: Sum(rhs),rhsMax =   8.39744940250853E-14  5.36260790727940E-01
 cg2d: Sum(rhs),rhsMax =  -1.69649017056628E-13  5.36551533550890E-01
 cg2d: Sum(rhs),rhsMax =   7.61612994892857E-14  5.36834653422661E-01
 cg2d: Sum(rhs),rhsMax =  -1.00010277837015E-13  5.37109744830134E-01
 cg2d: Sum(rhs),rhsMax =   7.87148124459236E-14  5.37376511793952E-01
 cg2d: Sum(rhs),rhsMax =   3.75220687853783E-13  5.37635140158930E-01
 cg2d: Sum(rhs),rhsMax =  -1.34600663947992E-13  5.37885757347202E-01
 cg2d: Sum(rhs),rhsMax =   2.00450767096072E-13  5.38128495614123E-01
 cg2d: Sum(rhs),rhsMax =   9.56179579958416E-14  5.38363644943571E-01
 cg2d: Sum(rhs),rhsMax =   1.99833205538624E-13  5.38591570800972E-01
 cg2d: Sum(rhs),rhsMax =   4.93632912323960E-14  5.38812694916209E-01
 cg2d: Sum(rhs),rhsMax =   3.38999661675388E-13  5.39027843928246E-01
 cg2d: Sum(rhs),rhsMax =   6.01046989956444E-14  5.39237206864317E-01
 cg2d: Sum(rhs),rhsMax =   1.35690070290906E-13  5.39439578773448E-01
 cg2d: Sum(rhs),rhsMax =   5.91540705308091E-14  5.39635210839925E-01
 cg2d: Sum(rhs),rhsMax =  -1.36397837469104E-13  5.39824721733468E-01
 cg2d: Sum(rhs),rhsMax =  -5.38735722699357E-14  5.40008987238651E-01
 cg2d: Sum(rhs),rhsMax =   1.32942268304959E-13  5.40188479429255E-01
 cg2d: Sum(rhs),rhsMax =  -6.45317133063372E-14  5.40363408351376E-01
 cg2d: Sum(rhs),rhsMax =  -2.57710519591114E-13  5.40535047274381E-01
 cg2d: Sum(rhs),rhsMax =   2.51743070833754E-14  5.40704043484417E-01
 cg2d: Sum(rhs),rhsMax =   7.51898543427387E-14  5.40871102527634E-01
 cg2d: Sum(rhs),rhsMax =  -2.10616246665296E-13  5.41036857586726E-01
 cg2d: Sum(rhs),rhsMax =   1.30312427515378E-14  5.41201784223468E-01
 cg2d: Sum(rhs),rhsMax =  -2.34534613952064E-14  5.41366054845915E-01
 cg2d: Sum(rhs),rhsMax =  -1.04437292147708E-13  5.41529930297466E-01
 cg2d: Sum(rhs),rhsMax =   1.60288449180257E-14  5.41693701712395E-01
 cg2d: Sum(rhs),rhsMax =  -3.33032212918027E-13  5.41857561638392E-01
 cg2d: Sum(rhs),rhsMax =  -2.45040099322580E-13  5.42021613640564E-01
 cg2d: Sum(rhs),rhsMax =   1.80973291907804E-13  5.42186298297586E-01
 cg2d: Sum(rhs),rhsMax =  -2.04045114138296E-13  5.42351121744710E-01
 cg2d: Sum(rhs),rhsMax =   2.62241617310366E-13  5.42514407276584E-01
 cg2d: Sum(rhs),rhsMax =   2.61950183766402E-13  5.42675795549503E-01
 cg2d: Sum(rhs),rhsMax =  -4.34582925201710E-14  5.42834757092914E-01
 cg2d: Sum(rhs),rhsMax =  -4.44574932423336E-14  5.42991047694062E-01
 cg2d: Sum(rhs),rhsMax =   1.63390134755304E-13  5.43144314346378E-01
 cg2d: Sum(rhs),rhsMax =   1.35724764760425E-13  5.43294449818897E-01
 cg2d: Sum(rhs),rhsMax =  -2.34111341423926E-13  5.43441392696580E-01
 cg2d: Sum(rhs),rhsMax =  -9.25023946329873E-14  5.43585036227189E-01
 cg2d: Sum(rhs),rhsMax =  -1.90472637662253E-13  5.43725244570786E-01
 cg2d: Sum(rhs),rhsMax =  -1.42594269725294E-14  5.43861851917395E-01
 cg2d: Sum(rhs),rhsMax =  -6.61276589042359E-14  5.43994891611610E-01
 cg2d: Sum(rhs),rhsMax =  -1.67164893039029E-13  5.44124145684657E-01
 cg2d: Sum(rhs),rhsMax =  -1.03500541470680E-13  5.44249758988448E-01
 cg2d: Sum(rhs),rhsMax =   8.72843464172490E-14  5.44371463024864E-01
 cg2d: Sum(rhs),rhsMax =   9.86086212684256E-14  5.44488859581207E-01
 cg2d: Sum(rhs),rhsMax =  -2.87339596560798E-14  5.44602080409081E-01
 cg2d: Sum(rhs),rhsMax =  -6.97636393098833E-14  5.44711269862870E-01
 cg2d: Sum(rhs),rhsMax =  -2.34742780769182E-14  5.44816643343239E-01
 cg2d: Sum(rhs),rhsMax =   3.44932415963228E-14  5.44918478896332E-01
 cg2d: Sum(rhs),rhsMax =   1.38430933382949E-13  5.45015956249982E-01
 cg2d: Sum(rhs),rhsMax =   3.09752223870419E-14  5.45108895780006E-01
 cg2d: Sum(rhs),rhsMax =   3.85663723179164E-14  5.45197689620851E-01
 cg2d: Sum(rhs),rhsMax =  -1.36821109997243E-13  5.45282388096114E-01
 cg2d: Sum(rhs),rhsMax =   2.11435036145957E-13  5.45363540934898E-01
 cg2d: Sum(rhs),rhsMax =  -1.04659336752633E-13  5.45441716753410E-01
 cg2d: Sum(rhs),rhsMax =  -1.35287614444479E-13  5.45517158777107E-01
 cg2d: Sum(rhs),rhsMax =  -2.73815692342083E-13  5.45590435051522E-01
 cg2d: Sum(rhs),rhsMax =   2.91176804889659E-13  5.45642950433513E-01
 cg2d: Sum(rhs),rhsMax =  -9.33281230075522E-15  5.45662607810462E-01
 cg2d: Sum(rhs),rhsMax =  -6.36643515683488E-14  5.45682257197783E-01
 cg2d: Sum(rhs),rhsMax =  -1.97626637277182E-13  5.45703305672468E-01
 cg2d: Sum(rhs),rhsMax =  -8.53969672753863E-14  5.45726137783020E-01
 cg2d: Sum(rhs),rhsMax =  -1.21361254379337E-13  5.45751470108723E-01
 cg2d: Sum(rhs),rhsMax =  -1.60149671302179E-13  5.45779742961075E-01
 cg2d: Sum(rhs),rhsMax =   2.30447605442663E-13  5.45811303567721E-01
 cg2d: Sum(rhs),rhsMax =  -9.05733821277011E-14  5.45846332201294E-01
 cg2d: Sum(rhs),rhsMax =   9.30366894635881E-14  5.45884863032314E-01
 cg2d: Sum(rhs),rhsMax =  -7.02701785648685E-14  5.45926823013220E-01
 cg2d: Sum(rhs),rhsMax =  -2.06674954927877E-13  5.45971998081305E-01
 cg2d: Sum(rhs),rhsMax =  -1.55146728797462E-13  5.45850439986694E-01
 cg2d: Sum(rhs),rhsMax =   2.15799600411515E-14  5.45725788238286E-01
 cg2d: Sum(rhs),rhsMax =   1.03486663682872E-13  5.45604360416330E-01
 cg2d: Sum(rhs),rhsMax =  -1.32442667943877E-13  5.45483858825205E-01
 cg2d: Sum(rhs),rhsMax =   1.18377530000657E-13  5.45366495689322E-01
 cg2d: Sum(rhs),rhsMax =  -7.89437959447525E-14  5.45251597914359E-01
 cg2d: Sum(rhs),rhsMax =  -7.84095011141517E-16  5.45138682806901E-01
 cg2d: Sum(rhs),rhsMax =  -6.76542155630955E-15  5.45027300513952E-01
 cg2d: Sum(rhs),rhsMax =  -1.27953203588049E-14  5.44917022015836E-01
 cg2d: Sum(rhs),rhsMax =  -2.30093721853564E-14  5.44807288884203E-01
 cg2d: Sum(rhs),rhsMax =  -7.05546732149287E-14  5.44697236233084E-01
 cg2d: Sum(rhs),rhsMax =   4.19726753353444E-13  5.44586619347500E-01
 cg2d: Sum(rhs),rhsMax =   2.78284340016199E-13  5.44475133643889E-01
 cg2d: Sum(rhs),rhsMax =   1.36231304015411E-13  5.44362661717819E-01
 cg2d: Sum(rhs),rhsMax =   5.18057818865714E-14  5.44212474271398E-01
 cg2d: Sum(rhs),rhsMax =   2.11858308674095E-13  5.44057425971143E-01
 cg2d: Sum(rhs),rhsMax =  -1.93872695675168E-14  5.43898621245495E-01
 cg2d: Sum(rhs),rhsMax =  -1.12687636999453E-14  5.43734206768900E-01
 cg2d: Sum(rhs),rhsMax =   1.36606004286222E-13  5.43564100893327E-01
 cg2d: Sum(rhs),rhsMax =   1.64659952339719E-14  5.43388523722712E-01
 cg2d: Sum(rhs),rhsMax =  -6.11941053385578E-14  5.43207814183140E-01
 cg2d: Sum(rhs),rhsMax =  -1.09488806909752E-13  5.43022375426130E-01
 cg2d: Sum(rhs),rhsMax =   2.26138552328337E-13  5.42832701735976E-01
 cg2d: Sum(rhs),rhsMax =  -2.77035339113496E-13  5.42639343103181E-01
 cg2d: Sum(rhs),rhsMax =   1.06165076729781E-14  5.42443360690548E-01
 cg2d: Sum(rhs),rhsMax =  -1.75956471615279E-13  5.42246272612262E-01
 cg2d: Sum(rhs),rhsMax =   2.52145526680181E-13  5.42048609432060E-01
 cg2d: Sum(rhs),rhsMax =  -2.87131429743681E-14  5.41850910125902E-01
 cg2d: Sum(rhs),rhsMax =  -3.57699980746418E-14  5.41653853852278E-01
 cg2d: Sum(rhs),rhsMax =  -1.19029786027625E-13  5.41458134168769E-01
 cg2d: Sum(rhs),rhsMax =  -2.15910622713977E-13  5.41264195622709E-01
 cg2d: Sum(rhs),rhsMax =  -1.73326630825699E-13  5.41072510745847E-01
 cg2d: Sum(rhs),rhsMax =  -7.90340015655033E-15  5.40883576747477E-01
 cg2d: Sum(rhs),rhsMax =   4.89816520676811E-14  5.40697769591874E-01
 cg2d: Sum(rhs),rhsMax =   2.04322669894452E-13  5.40515395955100E-01
 cg2d: Sum(rhs),rhsMax =  -1.45466971801511E-13  5.40336666673376E-01
 cg2d: Sum(rhs),rhsMax =   7.44959649523480E-14  5.40161632010085E-01
 cg2d: Sum(rhs),rhsMax =  -8.18511924904897E-14  5.39990145528899E-01
 cg2d: Sum(rhs),rhsMax =   7.06379399417756E-14  5.39824728750643E-01
 cg2d: Sum(rhs),rhsMax =   4.31876756579186E-14  5.39667236359653E-01
 cg2d: Sum(rhs),rhsMax =   2.51187959321442E-14  5.39510501059029E-01
 cg2d: Sum(rhs),rhsMax =  -3.13638004456607E-14  5.39353766509947E-01
 cg2d: Sum(rhs),rhsMax =   2.33223163004226E-13  5.39196645167981E-01
 cg2d: Sum(rhs),rhsMax =   5.64201463326697E-14  5.39038644092817E-01
 cg2d: Sum(rhs),rhsMax =  -1.45022882591661E-14  5.38879356841187E-01
 cg2d: Sum(rhs),rhsMax =   1.50809920107520E-13  5.38718392845108E-01
 cg2d: Sum(rhs),rhsMax =   1.11105569189363E-13  5.38555359831565E-01
 cg2d: Sum(rhs),rhsMax =   4.37920533169489E-13  5.38389922631390E-01
 cg2d: Sum(rhs),rhsMax =  -6.49688636222834E-14  5.38221855698087E-01
 cg2d: Sum(rhs),rhsMax =  -1.79599390914831E-13  5.38050994874785E-01
 cg2d: Sum(rhs),rhsMax =   4.42423875313125E-14  5.37877198740750E-01
 cg2d: Sum(rhs),rhsMax =   1.87232174209129E-13  5.37700401778028E-01
 cg2d: Sum(rhs),rhsMax =   5.36029554076833E-14  5.37520584122050E-01
 cg2d: Sum(rhs),rhsMax =   6.58986754054069E-14  5.37337681422493E-01
 cg2d: Sum(rhs),rhsMax =  -1.01467445556835E-13  5.37150618711538E-01
 cg2d: Sum(rhs),rhsMax =   2.09485206958959E-13  5.36958963206060E-01
 cg2d: Sum(rhs),rhsMax =   1.71251901548430E-14  5.36762788563204E-01
 cg2d: Sum(rhs),rhsMax =   2.51444698395886E-13  5.36562360305796E-01
 cg2d: Sum(rhs),rhsMax =  -2.94896052022153E-13  5.36357999024336E-01
 cg2d: Sum(rhs),rhsMax =   9.77967706816685E-14  5.36150087165146E-01
 cg2d: Sum(rhs),rhsMax =   7.54257767354716E-15  5.35939042033241E-01
 cg2d: Sum(rhs),rhsMax =   1.96079263936610E-13  5.35725377714011E-01
 cg2d: Sum(rhs),rhsMax =   7.82290898726501E-14  5.35509607811698E-01
 cg2d: Sum(rhs),rhsMax =  -1.79252446219635E-13  5.35292432884492E-01
 cg2d: Sum(rhs),rhsMax =   4.97463181758917E-13  5.35074219297630E-01
 cg2d: Sum(rhs),rhsMax =   1.31165911465558E-13  5.34855499174525E-01
 cg2d: Sum(rhs),rhsMax =   1.26773591624385E-14  5.34636835786158E-01
 cg2d: Sum(rhs),rhsMax =  -7.92005350191971E-14  5.34418711948753E-01
 cg2d: Sum(rhs),rhsMax =  -8.04911692853238E-16  5.34201566053597E-01
 cg2d: Sum(rhs),rhsMax =  -4.51028103753970E-15  5.33985784157772E-01
 cg2d: Sum(rhs),rhsMax =   3.00100222450084E-13  5.33771821989042E-01
 cg2d: Sum(rhs),rhsMax =   1.15185638804860E-13  5.33559805565984E-01
 cg2d: Sum(rhs),rhsMax =  -1.37168054692438E-13  5.33349860877523E-01
 cg2d: Sum(rhs),rhsMax =   2.34014196909271E-13  5.33141957116442E-01
 cg2d: Sum(rhs),rhsMax =   1.76698933262998E-13  5.32936168109945E-01
 cg2d: Sum(rhs),rhsMax =  -5.23192600354605E-15  5.32732405458220E-01
 cg2d: Sum(rhs),rhsMax =   1.30867539027690E-13  5.32530580532967E-01
 cg2d: Sum(rhs),rhsMax =   1.99285032920216E-13  5.32330195240160E-01
 cg2d: Sum(rhs),rhsMax =   2.52860232752283E-13  5.32130054864884E-01
 cg2d: Sum(rhs),rhsMax =   1.37952149703580E-13  5.31929977091023E-01
 cg2d: Sum(rhs),rhsMax =   7.87286902337314E-14  5.31729820071591E-01
 cg2d: Sum(rhs),rhsMax =  -1.72431513512095E-13  5.31529404094296E-01
 cg2d: Sum(rhs),rhsMax =   5.77315972805081E-14  5.31328550023057E-01
 cg2d: Sum(rhs),rhsMax =   5.31935606673528E-14  5.31126888361012E-01
 cg2d: Sum(rhs),rhsMax =  -3.47735729100407E-13  5.30923957698130E-01
 cg2d: Sum(rhs),rhsMax =   2.12822814926739E-13  5.30720042006489E-01
 cg2d: Sum(rhs),rhsMax =  -3.52495810318487E-15  5.30515066425378E-01
 cg2d: Sum(rhs),rhsMax =  -2.91357216131161E-13  5.30308941404375E-01
 cg2d: Sum(rhs),rhsMax =  -1.92602878090753E-13  5.30101615770165E-01
 cg2d: Sum(rhs),rhsMax =   2.38128960994288E-13  5.29893092964392E-01
 cg2d: Sum(rhs),rhsMax =  -1.01661734586145E-13  5.29683340147933E-01
 cg2d: Sum(rhs),rhsMax =  -7.01522173685021E-15  5.29471716050090E-01
 cg2d: Sum(rhs),rhsMax =  -1.30798150088651E-13  5.29257267112731E-01
 cg2d: Sum(rhs),rhsMax =  -5.58234014569337E-14  5.29040105697247E-01
 cg2d: Sum(rhs),rhsMax =   7.04991620636974E-14  5.28820492853177E-01
 cg2d: Sum(rhs),rhsMax =  -2.41910658171918E-13  5.28598076912604E-01
 cg2d: Sum(rhs),rhsMax =   1.57027169045421E-14  5.28373254697632E-01
 cg2d: Sum(rhs),rhsMax =   1.03472785895065E-13  5.28146232691618E-01
 cg2d: Sum(rhs),rhsMax =  -2.38413455644348E-13  5.27917319977717E-01
 cg2d: Sum(rhs),rhsMax =   1.10383924223356E-13  5.27686883680390E-01
 cg2d: Sum(rhs),rhsMax =   3.69010377809786E-14  5.27455341930761E-01
 cg2d: Sum(rhs),rhsMax =  -7.58421103697060E-14  5.27223247833764E-01
 cg2d: Sum(rhs),rhsMax =  -4.50819936936853E-14  5.26990993026367E-01
 cg2d: Sum(rhs),rhsMax =  -1.17933440790807E-13  5.26758995854794E-01
 cg2d: Sum(rhs),rhsMax =   1.51406664983256E-14  5.26528146491798E-01
 cg2d: Sum(rhs),rhsMax =  -1.74374403805189E-13  5.26298191394013E-01
 cg2d: Sum(rhs),rhsMax =   3.15129866645947E-13  5.26069367169902E-01
 cg2d: Sum(rhs),rhsMax =   8.48765502325932E-14  5.25841949236541E-01
 cg2d: Sum(rhs),rhsMax =  -1.25385812843604E-14  5.25616142932765E-01
 cg2d: Sum(rhs),rhsMax =  -8.25242651991687E-14  5.25392044794014E-01
 cg2d: Sum(rhs),rhsMax =  -1.90888971296488E-14  5.25169725795210E-01
 cg2d: Sum(rhs),rhsMax =   9.51044798469525E-14  5.24949207233222E-01
 cg2d: Sum(rhs),rhsMax =  -8.97198981775205E-14  5.24730450683148E-01
 cg2d: Sum(rhs),rhsMax =   7.64666108210577E-14  5.24513352404371E-01
 cg2d: Sum(rhs),rhsMax =  -1.17315879233360E-13  5.24297778635454E-01
 cg2d: Sum(rhs),rhsMax =  -2.83245649157493E-13  5.24083498838180E-01
 cg2d: Sum(rhs),rhsMax =   3.59157148466238E-14  5.23869851607536E-01
 cg2d: Sum(rhs),rhsMax =   9.68669588985449E-14  5.23655839074239E-01
 cg2d: Sum(rhs),rhsMax =  -1.24733556816636E-13  5.23441319942446E-01
 cg2d: Sum(rhs),rhsMax =  -1.91360816081954E-13  5.23226157325061E-01
 cg2d: Sum(rhs),rhsMax =   6.04724603725515E-14  5.23010154736282E-01
 cg2d: Sum(rhs),rhsMax =   9.85322934354826E-16  5.22793003497151E-01
 cg2d: Sum(rhs),rhsMax =  -9.46603906371024E-14  5.22574790340248E-01
 cg2d: Sum(rhs),rhsMax =  -1.26537669231652E-13  5.22355480635745E-01
 cg2d: Sum(rhs),rhsMax =  -4.77881623162091E-14  5.22135031640397E-01
 cg2d: Sum(rhs),rhsMax =  -1.18863252573931E-13  5.21913431098961E-01
 cg2d: Sum(rhs),rhsMax =  -9.07676711570105E-14  5.21690671098796E-01
 cg2d: Sum(rhs),rhsMax =   3.04520297866873E-13  5.21466617168272E-01
 cg2d: Sum(rhs),rhsMax =   5.61078961069938E-14  5.21240826876232E-01
 cg2d: Sum(rhs),rhsMax =   2.55906407176099E-13  5.21012420654765E-01
 cg2d: Sum(rhs),rhsMax =   1.68254299381942E-13  5.20781312157281E-01
 cg2d: Sum(rhs),rhsMax =  -5.50046119762726E-14  5.20547565747149E-01
 cg2d: Sum(rhs),rhsMax =   1.87350135405495E-14  5.20311292646522E-01
 cg2d: Sum(rhs),rhsMax =   1.24705801241021E-13  5.20072656832744E-01
 cg2d: Sum(rhs),rhsMax =   1.11799458579753E-13  5.19831882272353E-01
 cg2d: Sum(rhs),rhsMax =  -2.18332296686441E-13  5.19589382937431E-01
 cg2d: Sum(rhs),rhsMax =  -4.05814271076110E-13  5.19345411860628E-01
 cg2d: Sum(rhs),rhsMax =  -2.17090234677642E-13  5.19100315121116E-01
 cg2d: Sum(rhs),rhsMax =   1.92207361138230E-15  5.18854512214827E-01
 cg2d: Sum(rhs),rhsMax =  -1.15740750317173E-14  5.18608338322947E-01
 cg2d: Sum(rhs),rhsMax =   1.47971912500822E-13  5.18362246024674E-01
 cg2d: Sum(rhs),rhsMax =   1.66366920240080E-13  5.18116697067603E-01
 cg2d: Sum(rhs),rhsMax =  -1.82638626444742E-13  5.17872060163453E-01
 cg2d: Sum(rhs),rhsMax =  -6.85979051340269E-14  5.17628689571418E-01
 cg2d: Sum(rhs),rhsMax =  -3.41837669282086E-13  5.17386866912172E-01
 cg2d: Sum(rhs),rhsMax =   1.88689341928949E-13  5.17146795619268E-01
 cg2d: Sum(rhs),rhsMax =   1.42573453043582E-13  5.16908550328646E-01
 cg2d: Sum(rhs),rhsMax =   6.09581829458250E-14  5.16672328257784E-01
 cg2d: Sum(rhs),rhsMax =  -2.37629360633207E-13  5.16438195789878E-01
 cg2d: Sum(rhs),rhsMax =  -1.03139718987677E-13  5.16206273797496E-01
 cg2d: Sum(rhs),rhsMax =   1.73500103173296E-13  5.15976487053244E-01
 cg2d: Sum(rhs),rhsMax =   2.32591723658970E-13  5.15748787873043E-01
 cg2d: Sum(rhs),rhsMax =  -6.97775170976911E-14  5.15523025727439E-01
 cg2d: Sum(rhs),rhsMax =  -1.89938342831653E-13  5.15298929183005E-01
 cg2d: Sum(rhs),rhsMax =   2.12677098154757E-13  5.15077977683400E-01
 cg2d: Sum(rhs),rhsMax =  -2.89636370442992E-13  5.14857055445630E-01
 cg2d: Sum(rhs),rhsMax =   2.36262398534137E-13  5.14636011153929E-01
 cg2d: Sum(rhs),rhsMax =  -2.33389696457920E-13  5.14414787188845E-01
 cg2d: Sum(rhs),rhsMax =   9.89902604331405E-14  5.14188906202263E-01
 cg2d: Sum(rhs),rhsMax =  -7.83401121751126E-15  5.13962625856710E-01
 cg2d: Sum(rhs),rhsMax =   2.20434781539325E-13  5.13736116439703E-01
 cg2d: Sum(rhs),rhsMax =   2.82295020692658E-13  5.13509330350409E-01
 cg2d: Sum(rhs),rhsMax =   4.87179740993327E-14  5.13282399333520E-01
 cg2d: Sum(rhs),rhsMax =   3.49727191650828E-13  5.13055466584171E-01
 cg2d: Sum(rhs),rhsMax =  -8.78463968234655E-15  5.12828369301366E-01
 cg2d: Sum(rhs),rhsMax =   3.75144360020840E-13  5.12601283444238E-01
 cg2d: Sum(rhs),rhsMax =  -1.52509949113977E-13  5.12373311656441E-01
 cg2d: Sum(rhs),rhsMax =   1.63896674010289E-14  5.12144109695775E-01
 cg2d: Sum(rhs),rhsMax =   1.29674049276218E-13  5.11902237650959E-01
 cg2d: Sum(rhs),rhsMax =   4.02594624304697E-14  5.11651268897122E-01
 cg2d: Sum(rhs),rhsMax =  -1.62300728412390E-14  5.11399617943063E-01
 cg2d: Sum(rhs),rhsMax =  -1.33032473925709E-13  5.11147677938458E-01
 cg2d: Sum(rhs),rhsMax =  -7.19910242530375E-14  5.10895509825690E-01
 cg2d: Sum(rhs),rhsMax =   2.69208266789889E-13  5.10643408501840E-01
 cg2d: Sum(rhs),rhsMax =  -7.92352294887166E-14  5.10391698138861E-01
 cg2d: Sum(rhs),rhsMax =   2.35325647857110E-13  5.10140941220927E-01
 cg2d: Sum(rhs),rhsMax =  -1.48971113222984E-13  5.09891178214911E-01
 cg2d: Sum(rhs),rhsMax =  -5.41788836017076E-14  5.09642442355311E-01
 cg2d: Sum(rhs),rhsMax =   2.37608543951495E-13  5.09395338382427E-01
 cg2d: Sum(rhs),rhsMax =  -3.26891291813070E-14  5.09150060527275E-01
 cg2d: Sum(rhs),rhsMax =   8.35997937542743E-14  5.08906836660187E-01
 cg2d: Sum(rhs),rhsMax =  -3.51108031537706E-14  5.08665859381330E-01
 cg2d: Sum(rhs),rhsMax =   3.24469617840606E-13  5.08427266325423E-01
 cg2d: Sum(rhs),rhsMax =   1.19917964447325E-13  5.08191101061897E-01
 cg2d: Sum(rhs),rhsMax =  -1.20535526004772E-13  5.07957229435567E-01
 cg2d: Sum(rhs),rhsMax =  -3.63167829142697E-13  5.07725691467817E-01
 cg2d: Sum(rhs),rhsMax =  -1.47583334442203E-13  5.07496498963955E-01
 cg2d: Sum(rhs),rhsMax =  -1.17787724018825E-13  5.07269339257301E-01
 cg2d: Sum(rhs),rhsMax =   1.15588094651287E-13  5.07044259956729E-01
 cg2d: Sum(rhs),rhsMax =   2.08645600796586E-13  5.06821084904456E-01
 cg2d: Sum(rhs),rhsMax =  -4.74460748467465E-13  5.06599644197913E-01
 cg2d: Sum(rhs),rhsMax =   1.56194501776952E-14  5.06379694385138E-01
 cg2d: Sum(rhs),rhsMax =  -1.64535052249448E-13  5.06160999660951E-01
 cg2d: Sum(rhs),rhsMax =  -2.76098588436469E-14  5.05942272340600E-01
 cg2d: Sum(rhs),rhsMax =   1.95642113620664E-13  5.05722827547016E-01
 cg2d: Sum(rhs),rhsMax =   1.02209907204553E-14  5.05502548391191E-01
 cg2d: Sum(rhs),rhsMax =   2.51312859411712E-13  5.05281347384603E-01
 cg2d: Sum(rhs),rhsMax =  -4.84674800294016E-13  5.05059182901764E-01
 cg2d: Sum(rhs),rhsMax =  -6.01532712529718E-14  5.04836028039910E-01
 cg2d: Sum(rhs),rhsMax =   3.25503513032288E-13  5.04612999452346E-01
 cg2d: Sum(rhs),rhsMax =   1.11105569189363E-13  5.04390556941733E-01
 cg2d: Sum(rhs),rhsMax =   1.88474236217928E-13  5.04167543217979E-01
 cg2d: Sum(rhs),rhsMax =  -2.32119878873505E-13  5.03944198953784E-01
 cg2d: Sum(rhs),rhsMax =  -6.89448498292222E-14  5.03720520443365E-01
 cg2d: Sum(rhs),rhsMax =  -2.30149233004795E-13  5.03495487741865E-01
 cg2d: Sum(rhs),rhsMax =   8.71663852208826E-14  5.03265385881480E-01
 cg2d: Sum(rhs),rhsMax =  -8.84015083357781E-15  5.03031958029852E-01
 cg2d: Sum(rhs),rhsMax =  -3.80195874782885E-13  5.02795263383690E-01
 cg2d: Sum(rhs),rhsMax =   7.70494779089859E-14  5.02555658347319E-01
 cg2d: Sum(rhs),rhsMax =   3.12055936646516E-13  5.02313096495879E-01
 cg2d: Sum(rhs),rhsMax =   4.57828219779799E-14  5.02067991958633E-01
 cg2d: Sum(rhs),rhsMax =  -1.21097576410989E-13  5.01820744338529E-01
 cg2d: Sum(rhs),rhsMax =   2.14966933143046E-13  5.01571801582938E-01
 cg2d: Sum(rhs),rhsMax =   1.83186799063151E-15  5.01321648396210E-01
 cg2d: Sum(rhs),rhsMax =  -2.06765160548628E-13  5.01070800659064E-01
 cg2d: Sum(rhs),rhsMax =   8.94562202091720E-14  5.00819798400368E-01
 cg2d: Sum(rhs),rhsMax =   2.07972528087907E-13  5.00569136510548E-01
 cg2d: Sum(rhs),rhsMax =  -2.55767629298020E-14  5.00319346573234E-01
 cg2d: Sum(rhs),rhsMax =   1.57096557984460E-13  5.00070930622608E-01
 cg2d: Sum(rhs),rhsMax =   1.50768286744096E-13  4.99824250023077E-01
 cg2d: Sum(rhs),rhsMax =   1.64257496493292E-13  4.99580026467234E-01
 cg2d: Sum(rhs),rhsMax =   1.97342142627122E-14  4.99337777972648E-01
 cg2d: Sum(rhs),rhsMax =  -3.03812530688674E-13  4.99098005893978E-01
 cg2d: Sum(rhs),rhsMax =   2.80914180805780E-13  4.98861116356092E-01
 cg2d: Sum(rhs),rhsMax =  -2.53963516883005E-15  4.98627104829000E-01
 cg2d: Sum(rhs),rhsMax =   1.50782164531904E-13  4.98396254757721E-01
 cg2d: Sum(rhs),rhsMax =   2.49411602482041E-13  4.98168580429707E-01
 cg2d: Sum(rhs),rhsMax =   2.30926389122033E-14  4.97944091127802E-01
 cg2d: Sum(rhs),rhsMax =  -8.76937411575796E-14  4.97722649600020E-01
 cg2d: Sum(rhs),rhsMax =   1.45591871891781E-13  4.97504188758161E-01
 cg2d: Sum(rhs),rhsMax =   1.21833099164803E-13  4.97288308504029E-01
 cg2d: Sum(rhs),rhsMax =  -9.53959133909166E-14  4.97074857982214E-01
 cg2d: Sum(rhs),rhsMax =   3.53703177857767E-13  4.96862838869929E-01
 cg2d: Sum(rhs),rhsMax =  -1.01890718084974E-13  4.96651311884455E-01
 cg2d: Sum(rhs),rhsMax =   2.11206052647128E-13  4.96439972704848E-01
 cg2d: Sum(rhs),rhsMax =  -1.95107818790063E-13  4.96228771146919E-01
 cg2d: Sum(rhs),rhsMax =   2.96054847304106E-13  4.96017505178289E-01
 cg2d: Sum(rhs),rhsMax =   9.57428580861119E-14  4.95806166034379E-01
 cg2d: Sum(rhs),rhsMax =  -4.30766533554561E-14  4.95594604145777E-01
 cg2d: Sum(rhs),rhsMax =   1.74388281592996E-13  4.95382714104172E-01
 cg2d: Sum(rhs),rhsMax =   3.83693077310454E-13  4.95170372840444E-01
 cg2d: Sum(rhs),rhsMax =  -2.35700348127921E-13  4.94957730324155E-01
 cg2d: Sum(rhs),rhsMax =  -8.40716385397400E-14  4.94744146679980E-01
 cg2d: Sum(rhs),rhsMax =  -1.43968170718267E-13  4.94528913461627E-01
 cg2d: Sum(rhs),rhsMax =  -8.76521077941561E-14  4.94311848943027E-01
 cg2d: Sum(rhs),rhsMax =  -3.04201108747293E-14  4.94093032296442E-01
 cg2d: Sum(rhs),rhsMax =   2.28719820860590E-13  4.93872564787709E-01
 cg2d: Sum(rhs),rhsMax =   9.04415431435268E-14  4.93650644515392E-01
 cg2d: Sum(rhs),rhsMax =  -5.08065811644087E-14  4.93427302859422E-01
 cg2d: Sum(rhs),rhsMax =  -1.46660461552983E-13  4.93202805163251E-01
 cg2d: Sum(rhs),rhsMax =  -5.49282841433296E-13  4.92977400639460E-01
 cg2d: Sum(rhs),rhsMax =   7.84927678409986E-14  4.92751473061914E-01
 cg2d: Sum(rhs),rhsMax =   2.36796693364738E-13  4.92525259166988E-01
 cg2d: Sum(rhs),rhsMax =   3.19189119579733E-14  4.92299153731252E-01
 cg2d: Sum(rhs),rhsMax =   3.35148575558719E-13  4.92073452043949E-01
 cg2d: Sum(rhs),rhsMax =  -1.02723385353443E-13  4.91848582284962E-01
 cg2d: Sum(rhs),rhsMax =   5.63854518631501E-14  4.91624900306382E-01
 cg2d: Sum(rhs),rhsMax =  -5.15837372816463E-14  4.91403324505961E-01
 cg2d: Sum(rhs),rhsMax =   1.03070330048638E-13  4.91183634944230E-01
 cg2d: Sum(rhs),rhsMax =   3.61377594515488E-14  4.90966178555809E-01
 cg2d: Sum(rhs),rhsMax =   2.35339525644918E-13  4.90751133452577E-01
 cg2d: Sum(rhs),rhsMax =   1.37084787965591E-13  4.90539287403099E-01
 cg2d: Sum(rhs),rhsMax =  -4.10352307689266E-13  4.90328230529901E-01
 cg2d: Sum(rhs),rhsMax =   7.62861995795561E-14  4.90121522514405E-01
 cg2d: Sum(rhs),rhsMax =   1.15851772619635E-13  4.89918116122060E-01
 cg2d: Sum(rhs),rhsMax =  -2.40918396343659E-14  4.89715834532377E-01
 cg2d: Sum(rhs),rhsMax =  -4.89511209345039E-13  4.89518708660692E-01
 cg2d: Sum(rhs),rhsMax =   3.80417919387810E-13  4.89322349444955E-01
 cg2d: Sum(rhs),rhsMax =  -2.04850025831149E-13  4.89131023840410E-01
 cg2d: Sum(rhs),rhsMax =   8.23369150637632E-14  4.88940256377700E-01
 cg2d: Sum(rhs),rhsMax =  -1.17086895734531E-13  4.88753937863902E-01
 cg2d: Sum(rhs),rhsMax =  -8.54316617449058E-14  4.88566955900239E-01
 cg2d: Sum(rhs),rhsMax =  -6.64190924482000E-14  4.88382925400894E-01
 cg2d: Sum(rhs),rhsMax =  -6.51839693333045E-14  4.88197435625579E-01
 cg2d: Sum(rhs),rhsMax =   1.62370117351429E-14  4.88014831512370E-01
 cg2d: Sum(rhs),rhsMax =  -3.59420826434587E-13  4.87830628730360E-01
 cg2d: Sum(rhs),rhsMax =  -1.12312936728642E-13  4.87649149060923E-01
 cg2d: Sum(rhs),rhsMax =   1.72459269087710E-13  4.87466025620332E-01
 cg2d: Sum(rhs),rhsMax =  -9.55485690568025E-14  4.87285609160815E-01
 cg2d: Sum(rhs),rhsMax =  -5.30103738682897E-13  4.87103461317842E-01
 cg2d: Sum(rhs),rhsMax =   1.19348975147204E-13  4.86922589884399E-01
 cg2d: Sum(rhs),rhsMax =   3.96349619791181E-14  4.86741500309902E-01
 cg2d: Sum(rhs),rhsMax =   1.91097138113605E-14  4.86557739153030E-01
 cg2d: Sum(rhs),rhsMax =   4.27102797573298E-13  4.86374620740445E-01
 cg2d: Sum(rhs),rhsMax =   1.18419163364081E-13  4.86190235162114E-01
 cg2d: Sum(rhs),rhsMax =  -3.52454176955064E-13  4.86004914365994E-01
 cg2d: Sum(rhs),rhsMax =  -2.61249355482107E-13  4.85818692147116E-01
 cg2d: Sum(rhs),rhsMax =  -2.32175390024736E-14  4.85631626060629E-01
 cg2d: Sum(rhs),rhsMax =   6.44900799429138E-14  4.85443799235175E-01
 cg2d: Sum(rhs),rhsMax =   1.42899581057065E-13  4.85255321395182E-01
 cg2d: Sum(rhs),rhsMax =  -2.78110867668602E-14  4.85055278312562E-01
 cg2d: Sum(rhs),rhsMax =  -5.78675996010247E-13  4.84833220517341E-01
 cg2d: Sum(rhs),rhsMax =   1.97744598473548E-13  4.84610883630139E-01
 cg2d: Sum(rhs),rhsMax =   1.37667655053519E-13  4.84389006418957E-01
 cg2d: Sum(rhs),rhsMax =   1.73167036265909E-13  4.84167734844120E-01
 cg2d: Sum(rhs),rhsMax =   6.80011602582908E-14  4.83947336700537E-01
 cg2d: Sum(rhs),rhsMax =  -8.63753513158372E-14  4.83728085385944E-01
 cg2d: Sum(rhs),rhsMax =   1.77552417213178E-13  4.83510133479073E-01
 cg2d: Sum(rhs),rhsMax =  -1.30187527425107E-13  4.83293655308297E-01
 cg2d: Sum(rhs),rhsMax =  -6.54892806650764E-14  4.83078865687899E-01
 cg2d: Sum(rhs),rhsMax =  -1.62148072746504E-13  4.82866073760258E-01
 cg2d: Sum(rhs),rhsMax =   1.51073598075868E-13  4.82655443749104E-01
 cg2d: Sum(rhs),rhsMax =  -3.33066907387547E-16  4.82447213790237E-01
 cg2d: Sum(rhs),rhsMax =  -2.45428677381199E-13  4.82241454910477E-01
 cg2d: Sum(rhs),rhsMax =   3.60961260881254E-14  4.82038336900639E-01
 cg2d: Sum(rhs),rhsMax =  -1.28314026071052E-13  4.81837824275741E-01
 cg2d: Sum(rhs),rhsMax =  -9.86294379501373E-14  4.81640005946883E-01
 cg2d: Sum(rhs),rhsMax =   2.09152140051572E-13  4.81444586296492E-01
 cg2d: Sum(rhs),rhsMax =   2.15341633413857E-13  4.81251631158624E-01
 cg2d: Sum(rhs),rhsMax =  -4.32015534457264E-13  4.81060851517789E-01
 cg2d: Sum(rhs),rhsMax =  -4.54747350886464E-13  4.80872085426711E-01
 cg2d: Sum(rhs),rhsMax =   5.51961254480204E-13  4.80684426412692E-01
 cg2d: Sum(rhs),rhsMax =   2.02754479872169E-14  4.80498044311540E-01
 cg2d: Sum(rhs),rhsMax =   6.13287198802936E-13  4.80312853279097E-01
 cg2d: Sum(rhs),rhsMax =   3.36328187522383E-13  4.80129073246265E-01
 cg2d: Sum(rhs),rhsMax =  -1.99007477164059E-13  4.79946612936232E-01
 cg2d: Sum(rhs),rhsMax =   4.94715379772970E-13  4.79765661298125E-01
 cg2d: Sum(rhs),rhsMax =   1.23664967155435E-13  4.79585655157144E-01
 cg2d: Sum(rhs),rhsMax =  -2.79776202205539E-13  4.79406228082261E-01
 cg2d: Sum(rhs),rhsMax =   1.30825905664267E-13  4.79227072897485E-01
 cg2d: Sum(rhs),rhsMax =   3.35939609463765E-13  4.79048186248769E-01
 cg2d: Sum(rhs),rhsMax =  -1.80286341411318E-13  4.78869325058609E-01
 cg2d: Sum(rhs),rhsMax =  -4.73648897880707E-14  4.78690542561855E-01
 cg2d: Sum(rhs),rhsMax =   2.18214335490075E-13  4.78511641111580E-01
 cg2d: Sum(rhs),rhsMax =   1.61287649902420E-13  4.78332744799326E-01
 cg2d: Sum(rhs),rhsMax =   1.10730868918552E-13  4.78153720006434E-01
 cg2d: Sum(rhs),rhsMax =   3.69801411714832E-13  4.77974733289514E-01
 cg2d: Sum(rhs),rhsMax =  -2.62984078958084E-13  4.77795702239318E-01
 cg2d: Sum(rhs),rhsMax =   1.09273701198731E-13  4.77616846579303E-01
 cg2d: Sum(rhs),rhsMax =  -7.35800309570322E-14  4.77438116479302E-01
 cg2d: Sum(rhs),rhsMax =   5.77177194927003E-14  4.77259776383817E-01
 cg2d: Sum(rhs),rhsMax =   1.69655955950532E-13  4.77081905902968E-01
 cg2d: Sum(rhs),rhsMax =  -4.09047795635331E-13  4.76904493721608E-01
 cg2d: Sum(rhs),rhsMax =   1.40026878980848E-14  4.76727948453016E-01
 cg2d: Sum(rhs),rhsMax =   9.14823772291129E-14  4.76551649851826E-01
 cg2d: Sum(rhs),rhsMax =   3.28626015289046E-14  4.76376000824561E-01
 cg2d: Sum(rhs),rhsMax =   1.97522553868623E-13  4.76201151495478E-01
 cg2d: Sum(rhs),rhsMax =   1.62439506290468E-13  4.76027237018774E-01
 cg2d: Sum(rhs),rhsMax =  -1.06317732395667E-13  4.75854407725333E-01
 cg2d: Sum(rhs),rhsMax =  -1.91457960596608E-13  4.75682799445841E-01
 cg2d: Sum(rhs),rhsMax =  -3.23352455922077E-14  4.75512539088643E-01
 cg2d: Sum(rhs),rhsMax =  -3.52495810318487E-14  4.75343724280817E-01
 cg2d: Sum(rhs),rhsMax =   2.62345700718924E-13  4.75176453927930E-01
 cg2d: Sum(rhs),rhsMax =   3.12652681522252E-13  4.75010765184315E-01
 cg2d: Sum(rhs),rhsMax =   1.22957199977236E-14  4.74846703734606E-01
 cg2d: Sum(rhs),rhsMax =   1.61440305568306E-13  4.74684253820798E-01
 cg2d: Sum(rhs),rhsMax =  -1.95982119421956E-13  4.74523142921367E-01
 cg2d: Sum(rhs),rhsMax =  -1.37029276814360E-13  4.74363221493486E-01
 cg2d: Sum(rhs),rhsMax =   4.08326150669325E-13  4.74204373972451E-01
 cg2d: Sum(rhs),rhsMax =  -4.40342207141953E-14  4.74046411957613E-01
 cg2d: Sum(rhs),rhsMax =  -1.22221677223422E-13  4.73888741751887E-01
 cg2d: Sum(rhs),rhsMax =   1.84338655451199E-13  4.73731354873802E-01
 cg2d: Sum(rhs),rhsMax =   7.90756349289268E-14  4.73574346760542E-01
 cg2d: Sum(rhs),rhsMax =  -2.08014161451331E-13  4.73417820939572E-01
 cg2d: Sum(rhs),rhsMax =  -2.85257928389626E-13  4.73261389438112E-01
 cg2d: Sum(rhs),rhsMax =  -7.38853422888042E-14  4.73210056573513E-01
 cg2d: Sum(rhs),rhsMax =  -3.61655150271645E-14  4.73536416582491E-01
 cg2d: Sum(rhs),rhsMax =   1.07622244449601E-13  4.73861753553412E-01
 cg2d: Sum(rhs),rhsMax =   1.52905466066500E-13  4.74186314428915E-01
 cg2d: Sum(rhs),rhsMax =   2.81080714259474E-13  4.74510438491002E-01
 cg2d: Sum(rhs),rhsMax =   2.34701147405758E-13  4.74834178672377E-01
 cg2d: Sum(rhs),rhsMax =  -4.10893541413770E-13  4.75158120774499E-01
 cg2d: Sum(rhs),rhsMax =   1.41692213517786E-14  4.75482574217402E-01
 cg2d: Sum(rhs),rhsMax =  -5.23192600354605E-15  4.75807856456308E-01
 cg2d: Sum(rhs),rhsMax =   4.95686824919517E-13  4.76134253338244E-01
 cg2d: Sum(rhs),rhsMax =   1.27078902956157E-13  4.76462044514498E-01
 cg2d: Sum(rhs),rhsMax =  -4.23175383623686E-13  4.76791449407975E-01
 cg2d: Sum(rhs),rhsMax =  -2.07750483482982E-14  4.77122666095544E-01
 cg2d: Sum(rhs),rhsMax =  -9.07329766874909E-14  4.77455832911382E-01
 cg2d: Sum(rhs),rhsMax =   1.62869717712510E-13  4.77788503702369E-01
 cg2d: Sum(rhs),rhsMax =   1.91527349535647E-13  4.78120488595708E-01
 cg2d: Sum(rhs),rhsMax =   1.99576466464180E-13  4.78451895896863E-01
 cg2d: Sum(rhs),rhsMax =  -8.17401701880272E-14  4.78782714600913E-01
 cg2d: Sum(rhs),rhsMax =   1.49866230536588E-13  4.79112877014037E-01
 cg2d: Sum(rhs),rhsMax =   8.74300631892311E-14  4.79442319636913E-01
 cg2d: Sum(rhs),rhsMax =   9.49240686054509E-15  4.79770850999470E-01
 cg2d: Sum(rhs),rhsMax =  -1.01363362148277E-13  4.80098324737731E-01
 cg2d: Sum(rhs),rhsMax =   4.38399316848859E-14  4.80424569068301E-01
 cg2d: Sum(rhs),rhsMax =   9.86016823745217E-14  4.80749333171278E-01
 cg2d: Sum(rhs),rhsMax =   7.10542735760100E-14  4.81072437560299E-01
 cg2d: Sum(rhs),rhsMax =   3.12236347888017E-13  4.81393616532682E-01
 cg2d: Sum(rhs),rhsMax =  -9.08717545655691E-14  4.81712650365880E-01
 cg2d: Sum(rhs),rhsMax =   1.39110944985532E-13  4.82029290809694E-01
 cg2d: Sum(rhs),rhsMax =   1.41317513246975E-13  4.82343375120849E-01
 cg2d: Sum(rhs),rhsMax =  -4.04024036448902E-13  4.82654602341699E-01
 cg2d: Sum(rhs),rhsMax =   4.22786805565067E-13  4.82962815398806E-01
 cg2d: Sum(rhs),rhsMax =   8.77076189453874E-15  4.83267835992163E-01
 cg2d: Sum(rhs),rhsMax =  -1.41137102005473E-13  4.83569505674025E-01
 cg2d: Sum(rhs),rhsMax =  -1.21944121467266E-13  4.83867730954866E-01
 cg2d: Sum(rhs),rhsMax =  -1.33060229501325E-13  4.84162426054880E-01
 cg2d: Sum(rhs),rhsMax =   2.24154028671819E-13  4.84453546941359E-01
 cg2d: Sum(rhs),rhsMax =  -1.84630088995164E-13  4.84741083076447E-01
 cg2d: Sum(rhs),rhsMax =   6.55170362406921E-14  4.85025030443547E-01
 cg2d: Sum(rhs),rhsMax =  -4.65419369710673E-13  4.85239440849705E-01
 cg2d: Sum(rhs),rhsMax =  -2.14425699418541E-13  4.85449621369676E-01
 cg2d: Sum(rhs),rhsMax =  -6.01879657224913E-14  4.85657481103646E-01
 cg2d: Sum(rhs),rhsMax =  -2.49023024423423E-13  4.85862543476595E-01
 cg2d: Sum(rhs),rhsMax =   4.28546087505310E-14  4.86065167929184E-01
 cg2d: Sum(rhs),rhsMax =   2.04392058833491E-13  4.86265535390308E-01
 cg2d: Sum(rhs),rhsMax =  -2.96374036423686E-13  4.86463741419180E-01
 cg2d: Sum(rhs),rhsMax =   1.65548130759419E-13  4.86660147574496E-01
 cg2d: Sum(rhs),rhsMax =  -3.00176550283027E-14  4.86854979681124E-01
 cg2d: Sum(rhs),rhsMax =   1.75068293195579E-13  4.87048399122044E-01
 cg2d: Sum(rhs),rhsMax =   1.55250812206020E-13  4.87240587105442E-01
 cg2d: Sum(rhs),rhsMax =   2.24820162486594E-14  4.87431423534114E-01
 cg2d: Sum(rhs),rhsMax =   2.43666198329606E-13  4.87620924666915E-01
 cg2d: Sum(rhs),rhsMax =   1.77510783849755E-13  4.87809206175241E-01
 cg2d: Sum(rhs),rhsMax =  -1.31811228598622E-13  4.87996359994878E-01
 cg2d: Sum(rhs),rhsMax =   2.76861866765898E-14  4.88182450222117E-01
 cg2d: Sum(rhs),rhsMax =   5.79120085220097E-14  4.88367521561858E-01
 cg2d: Sum(rhs),rhsMax =   1.17392207066302E-13  4.88551594347925E-01
 cg2d: Sum(rhs),rhsMax =   9.66865476570433E-14  4.88734699434507E-01
 cg2d: Sum(rhs),rhsMax =   1.60704782814491E-13  4.88916837248682E-01
 cg2d: Sum(rhs),rhsMax =   1.48700496360732E-13  4.89098004986085E-01
 cg2d: Sum(rhs),rhsMax =   2.85049761572509E-14  4.89278162350759E-01
 cg2d: Sum(rhs),rhsMax =  -2.21433982261487E-13  4.89457266992079E-01
 cg2d: Sum(rhs),rhsMax =  -4.45060654996610E-14  4.89635192069550E-01
 cg2d: Sum(rhs),rhsMax =   1.95413130121835E-13  4.89811762007146E-01
 cg2d: Sum(rhs),rhsMax =   3.98292510084275E-15  4.89986701259237E-01
 cg2d: Sum(rhs),rhsMax =   2.07348027636556E-13  4.90159646514223E-01
 cg2d: Sum(rhs),rhsMax =   4.78991846186716E-13  4.90330094040324E-01
 cg2d: Sum(rhs),rhsMax =   3.47916140341908E-13  4.90497478038350E-01
 cg2d: Sum(rhs),rhsMax =   1.56832880016111E-13  4.90661976844243E-01
 cg2d: Sum(rhs),rhsMax =   2.60361177062407E-13  4.90822223631185E-01
 cg2d: Sum(rhs),rhsMax =   3.22603055380455E-13  4.90977637924129E-01
 cg2d: Sum(rhs),rhsMax =  -2.76029199497430E-14  4.91127549661828E-01
 cg2d: Sum(rhs),rhsMax =   1.70391478704346E-13  4.91271779713934E-01
 cg2d: Sum(rhs),rhsMax =  -1.17753029549306E-13  4.91410199056434E-01
 cg2d: Sum(rhs),rhsMax =   8.71802630086904E-14  4.91542736798948E-01
 cg2d: Sum(rhs),rhsMax =   6.11732886568461E-14  4.91669294941057E-01
 cg2d: Sum(rhs),rhsMax =   3.65957264492067E-14  4.91789837823357E-01
 cg2d: Sum(rhs),rhsMax =   1.26509913656037E-13  4.91904393176863E-01
 cg2d: Sum(rhs),rhsMax =  -1.85670923080750E-13  4.92012774611037E-01
 cg2d: Sum(rhs),rhsMax =  -1.21277987652491E-13  4.92115314341310E-01
 cg2d: Sum(rhs),rhsMax =  -8.80406858527749E-14  4.92212117927984E-01
 cg2d: Sum(rhs),rhsMax =  -1.17822418488345E-14  4.92303308310981E-01
 cg2d: Sum(rhs),rhsMax =   3.06837888430778E-13  4.92388791706689E-01
 cg2d: Sum(rhs),rhsMax =  -5.45674616603264E-14  4.92468746236563E-01
 cg2d: Sum(rhs),rhsMax =   1.61828883626924E-13  4.92543365660076E-01
 cg2d: Sum(rhs),rhsMax =  -2.30787611243954E-13  4.92612856155301E-01
 cg2d: Sum(rhs),rhsMax =   2.33119079595667E-13  4.92677455607948E-01
 cg2d: Sum(rhs),rhsMax =  -2.86826118411909E-13  4.92737392156738E-01
 cg2d: Sum(rhs),rhsMax =   1.93428606465318E-13  4.92792888942219E-01
 cg2d: Sum(rhs),rhsMax =  -5.09037256790634E-14  4.92844189540616E-01
 cg2d: Sum(rhs),rhsMax =   1.67463265476897E-13  4.92891494581196E-01
 cg2d: Sum(rhs),rhsMax =   1.32782673745169E-13  4.92935027763165E-01
 cg2d: Sum(rhs),rhsMax =   2.07167616395054E-13  4.92974975370703E-01
 cg2d: Sum(rhs),rhsMax =   4.82253126321552E-14  4.93011518083395E-01
 cg2d: Sum(rhs),rhsMax =   2.60472199364870E-13  4.93044802947430E-01
 cg2d: Sum(rhs),rhsMax =   1.25399690631411E-13  4.93074971571178E-01
 cg2d: Sum(rhs),rhsMax =  -8.74161854014233E-14  4.93102119306237E-01
 cg2d: Sum(rhs),rhsMax =   1.79453674142849E-13  4.93126357758447E-01
 cg2d: Sum(rhs),rhsMax =  -1.85518267414864E-13  4.93147678866554E-01
 cg2d: Sum(rhs),rhsMax =  -1.01516017814163E-13  4.93166160804925E-01
 cg2d: Sum(rhs),rhsMax =  -1.31311628237540E-13  4.93180540994277E-01
 cg2d: Sum(rhs),rhsMax =  -3.46153661290316E-13  4.93193946849765E-01
 cg2d: Sum(rhs),rhsMax =   1.69017577711372E-13  4.93203715394303E-01
 cg2d: Sum(rhs),rhsMax =  -7.21644966006352E-14  4.93210481444732E-01
 cg2d: Sum(rhs),rhsMax =   1.00613961606655E-14  4.93213999450514E-01
 cg2d: Sum(rhs),rhsMax =   1.23900889548167E-13  4.93214398054963E-01
 cg2d: Sum(rhs),rhsMax =  -5.70377078901174E-14  4.93211491106050E-01
 cg2d: Sum(rhs),rhsMax =   1.16948117856452E-13  4.93205228512741E-01
 cg2d: Sum(rhs),rhsMax =  -1.39943612254001E-13  4.93188909817341E-01
 cg2d: Sum(rhs),rhsMax =   2.05113703799498E-13  4.93168559296525E-01
 cg2d: Sum(rhs),rhsMax =  -1.97064586870965E-15  4.93144604738781E-01
 cg2d: Sum(rhs),rhsMax =  -1.18738352483660E-13  4.93117128133063E-01
 cg2d: Sum(rhs),rhsMax =  -1.32671651442706E-14  4.93085817782547E-01
 cg2d: Sum(rhs),rhsMax =   1.28161370405167E-13  4.93050434670545E-01
 cg2d: Sum(rhs),rhsMax =  -1.84435799965854E-13  4.93010903033126E-01
 cg2d: Sum(rhs),rhsMax =   3.91450760695022E-13  4.92967120625520E-01
 cg2d: Sum(rhs),rhsMax =  -2.57210919230033E-13  4.92918907910402E-01
 cg2d: Sum(rhs),rhsMax =  -6.29912788596698E-14  4.92865965946084E-01
 cg2d: Sum(rhs),rhsMax =  -6.03267436005694E-14  4.92808179562267E-01
 cg2d: Sum(rhs),rhsMax =  -3.03396197054440E-13  4.92745618549139E-01
 cg2d: Sum(rhs),rhsMax =   2.72892819452863E-13  4.92678262270582E-01
 cg2d: Sum(rhs),rhsMax =   2.27359797655424E-13  4.92608462985349E-01
 cg2d: Sum(rhs),rhsMax =   2.96887514572575E-13  4.92534012429828E-01
 cg2d: Sum(rhs),rhsMax =   1.75012782044348E-13  4.92455028855050E-01
 cg2d: Sum(rhs),rhsMax =   8.54316617449058E-14  4.92371615166279E-01
 cg2d: Sum(rhs),rhsMax =  -5.79813974610488E-14  4.92283943746207E-01
 cg2d: Sum(rhs),rhsMax =   1.80216952472279E-13  4.92192163374460E-01
 cg2d: Sum(rhs),rhsMax =  -2.05752082038657E-13  4.92096482014025E-01
 cg2d: Sum(rhs),rhsMax =   5.68642355425197E-13  4.91997089430749E-01
 cg2d: Sum(rhs),rhsMax =  -3.27918248110848E-13  4.91894212399677E-01
 cg2d: Sum(rhs),rhsMax =  -2.76126344012084E-13  4.91788055240335E-01
 cg2d: Sum(rhs),rhsMax =  -3.32095462241000E-14  4.91678835174633E-01
 cg2d: Sum(rhs),rhsMax =   3.19369530821234E-13  4.91566751550128E-01
 cg2d: Sum(rhs),rhsMax =  -5.35682609381638E-14  4.91452008593602E-01
 cg2d: Sum(rhs),rhsMax =   1.05526698490621E-13  4.91334782890650E-01
 cg2d: Sum(rhs),rhsMax =  -3.01425551185730E-13  4.91215109346172E-01
 cg2d: Sum(rhs),rhsMax =  -1.52794443764037E-13  4.91093051685446E-01
 cg2d: Sum(rhs),rhsMax =   2.58959520493818E-14  4.90969413867670E-01
 cg2d: Sum(rhs),rhsMax =   1.37681532841327E-13  4.90844268739311E-01
 cg2d: Sum(rhs),rhsMax =  -6.78068712289814E-14  4.90717639279673E-01
 cg2d: Sum(rhs),rhsMax =   2.39266939594529E-13  4.90589492142939E-01
 cg2d: Sum(rhs),rhsMax =   2.45359288442160E-14  4.90459772453645E-01
 cg2d: Sum(rhs),rhsMax =   3.24462678946702E-14  4.90328401960216E-01
 cg2d: Sum(rhs),rhsMax =  -2.58237875527811E-13  4.90195248579551E-01
 cg2d: Sum(rhs),rhsMax =   1.27398092075737E-14  4.90061281761927E-01
 cg2d: Sum(rhs),rhsMax =   2.84397505545542E-13  4.89922401009302E-01
 cg2d: Sum(rhs),rhsMax =  -3.63778451806240E-13  4.89784201346755E-01
 cg2d: Sum(rhs),rhsMax =  -6.05487882054945E-14  4.89641493222563E-01
 cg2d: Sum(rhs),rhsMax =   3.88508669679766E-13  4.89496704867026E-01
 cg2d: Sum(rhs),rhsMax =   4.38940550573363E-13  4.89349146542445E-01
 cg2d: Sum(rhs),rhsMax =   1.66283653513233E-13  4.89198680649019E-01
 cg2d: Sum(rhs),rhsMax =   1.05818132034585E-13  4.89045189787171E-01
 cg2d: Sum(rhs),rhsMax =  -2.23002172283771E-13  4.88888551295499E-01
 cg2d: Sum(rhs),rhsMax =   4.13280520916715E-14  4.88728671972954E-01
 cg2d: Sum(rhs),rhsMax =  -1.57970858616352E-13  4.88565447137489E-01
 cg2d: Sum(rhs),rhsMax =   1.31894495325469E-13  4.88398798308477E-01
 cg2d: Sum(rhs),rhsMax =  -3.19827497818892E-13  4.88228626576218E-01
 cg2d: Sum(rhs),rhsMax =   1.67782454596477E-13  4.88054751201066E-01
 cg2d: Sum(rhs),rhsMax =   1.44759204623313E-13  4.87877020855873E-01
 cg2d: Sum(rhs),rhsMax =   2.04836148043341E-14  4.87695434102358E-01
 cg2d: Sum(rhs),rhsMax =   4.10976808140617E-13  4.87509990541457E-01
 cg2d: Sum(rhs),rhsMax =  -4.89108753498613E-13  4.87320740547386E-01
 cg2d: Sum(rhs),rhsMax =  -4.86111151332125E-13  4.87127748476693E-01
 cg2d: Sum(rhs),rhsMax =   4.42257341859431E-13  4.86930931721073E-01
 cg2d: Sum(rhs),rhsMax =   2.54199439275737E-13  4.86730582165149E-01
 cg2d: Sum(rhs),rhsMax =   2.82038281618213E-13  4.86526841955700E-01
 cg2d: Sum(rhs),rhsMax =  -1.98716043620095E-13  4.86178130472367E-01
 cg2d: Sum(rhs),rhsMax =   3.88564180830997E-13  4.85784603714421E-01
 cg2d: Sum(rhs),rhsMax =  -1.03125841199869E-13  4.85388225013355E-01
 cg2d: Sum(rhs),rhsMax =   1.94746996307060E-13  4.84988952020979E-01
 cg2d: Sum(rhs),rhsMax =  -4.96797047944142E-13  4.84584620646198E-01
 cg2d: Sum(rhs),rhsMax =  -3.08128522696904E-13  4.84177685943376E-01
 cg2d: Sum(rhs),rhsMax =  -1.83353332516845E-13  4.83768631845615E-01
 cg2d: Sum(rhs),rhsMax =   1.91749394140572E-13  4.83357963379987E-01
 cg2d: Sum(rhs),rhsMax =  -8.08381139805192E-14  4.82945799104685E-01
 cg2d: Sum(rhs),rhsMax =  -3.08433834028676E-13  4.82532236188651E-01
 cg2d: Sum(rhs),rhsMax =  -4.70123939777523E-13  4.82117288367017E-01
 cg2d: Sum(rhs),rhsMax =   4.11476408501699E-14  4.81700935063995E-01
 cg2d: Sum(rhs),rhsMax =   3.06102365676963E-13  4.81283108584888E-01
 cg2d: Sum(rhs),rhsMax =  -1.87350135405495E-15  4.80863708306846E-01
 cg2d: Sum(rhs),rhsMax =   8.39606162372775E-14  4.80442588272176E-01
 cg2d: Sum(rhs),rhsMax =  -1.24247834243363E-13  4.80019503790481E-01
 cg2d: Sum(rhs),rhsMax =  -4.83155182529060E-13  4.79594078072978E-01
 cg2d: Sum(rhs),rhsMax =   9.35779231880929E-14  4.79166132206345E-01
 cg2d: Sum(rhs),rhsMax =   4.37760938609699E-13  4.78734523563391E-01
 cg2d: Sum(rhs),rhsMax =  -1.66394675815695E-14  4.78301222778033E-01
 cg2d: Sum(rhs),rhsMax =   1.99396055222678E-13  4.77864664445983E-01
 cg2d: Sum(rhs),rhsMax =  -1.16323617405101E-13  4.77424763150020E-01
 cg2d: Sum(rhs),rhsMax =   4.50472992241657E-13  4.76981443714961E-01
 cg2d: Sum(rhs),rhsMax =  -6.98191504611145E-14  4.76535215217899E-01
 cg2d: Sum(rhs),rhsMax =  -1.49241730085237E-13  4.76085146721231E-01
 cg2d: Sum(rhs),rhsMax =  -4.29239976895701E-14  4.75631456727896E-01
 cg2d: Sum(rhs),rhsMax =   3.71119801556574E-13  4.75174038249761E-01
 cg2d: Sum(rhs),rhsMax =   1.76358927461706E-13  4.74712930375951E-01
 cg2d: Sum(rhs),rhsMax =  -4.92231255755371E-13  4.74248206383430E-01
 cg2d: Sum(rhs),rhsMax =   1.26287869051112E-13  4.73779951535088E-01
 cg2d: Sum(rhs),rhsMax =  -2.10512163256737E-13  4.73308271753923E-01
 cg2d: Sum(rhs),rhsMax =  -3.39173134022985E-14  4.72833037964107E-01
 cg2d: Sum(rhs),rhsMax =   5.58025847752219E-14  4.72450632453075E-01
 cg2d: Sum(rhs),rhsMax =  -2.29288810160710E-13  4.72076312922803E-01
 cg2d: Sum(rhs),rhsMax =   4.69901895172598E-14  4.71696983052264E-01
 cg2d: Sum(rhs),rhsMax =  -3.26128013483640E-15  4.71313161913564E-01
 cg2d: Sum(rhs),rhsMax =   4.07313072159354E-14  4.70924811765635E-01
 cg2d: Sum(rhs),rhsMax =  -2.73198130784635E-13  4.70531965205641E-01
 cg2d: Sum(rhs),rhsMax =   2.64829824736523E-13  4.70134632408661E-01
 cg2d: Sum(rhs),rhsMax =   1.45897183223553E-13  4.69732871980051E-01
 cg2d: Sum(rhs),rhsMax =   1.79134485023269E-13  4.69326792802401E-01
 cg2d: Sum(rhs),rhsMax =   1.92776350438351E-13  4.68916537564659E-01
 cg2d: Sum(rhs),rhsMax =   1.32241440020664E-13  4.68502297605073E-01
 cg2d: Sum(rhs),rhsMax =   3.27529670052229E-13  4.68084169940094E-01
 cg2d: Sum(rhs),rhsMax =   4.50389725514810E-13  4.67662549134941E-01
 cg2d: Sum(rhs),rhsMax =   5.19306819768417E-14  4.67237746547315E-01
 cg2d: Sum(rhs),rhsMax =  -3.40588668379382E-13  4.66810266989431E-01
 cg2d: Sum(rhs),rhsMax =   2.07334149848748E-14  4.66380332028335E-01
 cg2d: Sum(rhs),rhsMax =  -3.03229663600746E-14  4.65948994517816E-01
 cg2d: Sum(rhs),rhsMax =  -1.39804834375923E-13  4.65518279773363E-01
 cg2d: Sum(rhs),rhsMax =  -8.00887134388972E-14  4.65086874372924E-01
 cg2d: Sum(rhs),rhsMax =   7.91172682923502E-14  4.64651588896745E-01
 cg2d: Sum(rhs),rhsMax =  -3.38049033210552E-13  4.64217616810458E-01
 cg2d: Sum(rhs),rhsMax =  -6.38100683403309E-14  4.63780650036074E-01
 cg2d: Sum(rhs),rhsMax =   3.77475828372553E-13  4.63343051326159E-01
 cg2d: Sum(rhs),rhsMax =   2.00159333552108E-13  4.62904429026255E-01
 cg2d: Sum(rhs),rhsMax =   5.79938874700758E-13  4.62464549083374E-01
 cg2d: Sum(rhs),rhsMax =  -3.14609449603154E-14  4.62023324614061E-01
 cg2d: Sum(rhs),rhsMax =   2.11164419283705E-13  4.61580796879207E-01
 cg2d: Sum(rhs),rhsMax =  -2.80983569744819E-13  4.61136955617023E-01
 cg2d: Sum(rhs),rhsMax =   1.74721348500384E-14  4.60691807662589E-01
 cg2d: Sum(rhs),rhsMax =   2.08194572692832E-13  4.60244946048336E-01
 cg2d: Sum(rhs),rhsMax =  -4.49085213460876E-14  4.59796751765112E-01
 cg2d: Sum(rhs),rhsMax =   5.12645481620666E-14  4.59347273292847E-01
 cg2d: Sum(rhs),rhsMax =  -3.97820665298809E-13  4.58896542933125E-01
 cg2d: Sum(rhs),rhsMax =  -4.08839628818214E-14  4.58444635652242E-01
 cg2d: Sum(rhs),rhsMax =   1.12770903726300E-13  4.57991612230505E-01
 cg2d: Sum(rhs),rhsMax =  -2.31051289212303E-13  4.57537553504809E-01
 cg2d: Sum(rhs),rhsMax =   7.16371406639382E-14  4.57082410840551E-01
 cg2d: Sum(rhs),rhsMax =  -9.81159598012482E-14  4.56626079650077E-01
 cg2d: Sum(rhs),rhsMax =   1.56485935320916E-13  4.56168626396293E-01
 cg2d: Sum(rhs),rhsMax =  -9.84073933452123E-14  4.55710067825518E-01
 cg2d: Sum(rhs),rhsMax =  -3.46708772802629E-13  4.55250438339449E-01
 cg2d: Sum(rhs),rhsMax =  -9.36750677027476E-15  4.54789892085074E-01
 cg2d: Sum(rhs),rhsMax =  -4.33222901996544E-13  4.54328399178154E-01
 cg2d: Sum(rhs),rhsMax =   1.73472347597681E-14  4.53866142287984E-01
 cg2d: Sum(rhs),rhsMax =   2.11358708313014E-14  4.53403213941953E-01
 cg2d: Sum(rhs),rhsMax =  -1.61384794417074E-13  4.52939661614259E-01
 cg2d: Sum(rhs),rhsMax =  -1.66117120059539E-14  4.52475549112908E-01
 cg2d: Sum(rhs),rhsMax =  -3.35856342736918E-13  4.52011003255319E-01
 cg2d: Sum(rhs),rhsMax =  -4.06480404890885E-14  4.51546115128114E-01
 cg2d: Sum(rhs),rhsMax =   1.97702965110125E-13  4.51080983195983E-01
 cg2d: Sum(rhs),rhsMax =   2.49605891511351E-13  4.50615698138163E-01
 cg2d: Sum(rhs),rhsMax =   2.72837308301632E-13  4.50150338967799E-01
 cg2d: Sum(rhs),rhsMax =  -2.48329135033032E-13  4.49684924218457E-01
 cg2d: Sum(rhs),rhsMax =   1.58914548187283E-13  4.49219516136158E-01
 cg2d: Sum(rhs),rhsMax =   3.15733550415587E-13  4.48754142009316E-01
 cg2d: Sum(rhs),rhsMax =  -1.66561209269389E-13  4.48288782841004E-01
 cg2d: Sum(rhs),rhsMax =   2.52242671194836E-13  4.47823403906286E-01
 cg2d: Sum(rhs),rhsMax =   5.29298826990043E-14  4.47357949715449E-01
 cg2d: Sum(rhs),rhsMax =  -4.73482364427014E-13  4.46892358709037E-01
 cg2d: Sum(rhs),rhsMax =  -8.35720381786587E-14  4.46426572796090E-01
 cg2d: Sum(rhs),rhsMax =   1.87960758069039E-13  4.45960494739204E-01
 cg2d: Sum(rhs),rhsMax =   4.20066759154736E-13  4.45494035306065E-01
 cg2d: Sum(rhs),rhsMax =   1.16684439888104E-13  4.45027056244627E-01
 cg2d: Sum(rhs),rhsMax =   7.79792896921094E-14  4.44559363535820E-01
 cg2d: Sum(rhs),rhsMax =   4.87623830203177E-13  4.44090846282663E-01
 cg2d: Sum(rhs),rhsMax =  -4.39689951114985E-13  4.43621410518217E-01
 cg2d: Sum(rhs),rhsMax =  -2.71310751642773E-14  4.43150965861962E-01
 cg2d: Sum(rhs),rhsMax =  -3.11473069558588E-13  4.42679435113548E-01
 cg2d: Sum(rhs),rhsMax =   3.76865205709009E-13  4.42206755204118E-01
 cg2d: Sum(rhs),rhsMax =  -3.43239325850675E-13  4.41732879578478E-01
 cg2d: Sum(rhs),rhsMax =  -2.32938668354166E-13  4.41257790694245E-01
 cg2d: Sum(rhs),rhsMax =   1.84616211207356E-13  4.40781101313797E-01
 cg2d: Sum(rhs),rhsMax =   2.53394527582884E-13  4.40302428043324E-01
 cg2d: Sum(rhs),rhsMax =   1.15005227563358E-13  4.39821339215153E-01
 cg2d: Sum(rhs),rhsMax =   7.30665528081431E-14  4.39337906481271E-01
 cg2d: Sum(rhs),rhsMax =   8.89566198480907E-15  4.38851964941350E-01
 cg2d: Sum(rhs),rhsMax =  -1.53321799700734E-13  4.38363261994480E-01
 cg2d: Sum(rhs),rhsMax =   5.15490428121268E-13  4.37871785560016E-01
 cg2d: Sum(rhs),rhsMax =   2.29177787858248E-13  4.37377604578471E-01
 cg2d: Sum(rhs),rhsMax =   3.71605524129848E-13  4.36880710718420E-01
 cg2d: Sum(rhs),rhsMax =  -3.01911273759004E-13  4.36381151773481E-01
 cg2d: Sum(rhs),rhsMax =  -4.69069227904129E-14  4.35879016521971E-01
 cg2d: Sum(rhs),rhsMax =  -5.86752868514395E-14  4.35374491594270E-01
 cg2d: Sum(rhs),rhsMax =   9.51461132103759E-14  4.34867835954507E-01
 cg2d: Sum(rhs),rhsMax =  -1.11161080340594E-13  4.34359310490262E-01
 cg2d: Sum(rhs),rhsMax =   3.58463259075847E-14  4.34170091720908E-01
 cg2d: Sum(rhs),rhsMax =   1.01307850997046E-14  4.34052854009980E-01
 cg2d: Sum(rhs),rhsMax =  -8.87623308187813E-14  4.33938152934417E-01
 cg2d: Sum(rhs),rhsMax =   3.08808534299487E-13  4.33827068672837E-01
 cg2d: Sum(rhs),rhsMax =  -1.87530546646997E-13  4.33718171813596E-01
 cg2d: Sum(rhs),rhsMax =  -4.51610970841898E-13  4.33611348423626E-01
 cg2d: Sum(rhs),rhsMax =  -9.24260668000443E-15  4.33506420787295E-01
 cg2d: Sum(rhs),rhsMax =   5.43523559493053E-13  4.33403208551251E-01
 cg2d: Sum(rhs),rhsMax =   4.45379844116189E-13  4.33301464631213E-01
 cg2d: Sum(rhs),rhsMax =  -1.64590563400679E-13  4.33200916952056E-01
 cg2d: Sum(rhs),rhsMax =  -1.93178806284777E-13  4.33101256201476E-01
 cg2d: Sum(rhs),rhsMax =   1.49324996812084E-13  4.33002157868815E-01
 cg2d: Sum(rhs),rhsMax =   1.78662640237803E-13  4.32903266001376E-01
 cg2d: Sum(rhs),rhsMax =   1.40332190312620E-13  4.32804233452602E-01
 cg2d: Sum(rhs),rhsMax =   1.02751140929058E-13  4.32704708792503E-01
 cg2d: Sum(rhs),rhsMax =   1.71945790938821E-13  4.32604359823466E-01
 cg2d: Sum(rhs),rhsMax =  -3.85566578664509E-13  4.32502745240134E-01
 cg2d: Sum(rhs),rhsMax =  -6.58431642541757E-13  4.32399383122790E-01
 cg2d: Sum(rhs),rhsMax =   6.62664367823140E-14  4.32294000646419E-01
 cg2d: Sum(rhs),rhsMax =  -3.13499226578529E-14  4.32186380917835E-01
 cg2d: Sum(rhs),rhsMax =  -2.74710809655687E-13  4.32076360997908E-01
 cg2d: Sum(rhs),rhsMax =  -4.19275725249690E-13  4.31963838944954E-01
 cg2d: Sum(rhs),rhsMax =  -2.62068144962768E-13  4.31848774220237E-01
 cg2d: Sum(rhs),rhsMax =  -1.26093580021802E-13  4.31731178241200E-01
 cg2d: Sum(rhs),rhsMax =   3.53356233162572E-13  4.31611144457370E-01
 cg2d: Sum(rhs),rhsMax =   1.73042136175638E-13  4.31488753822585E-01
 cg2d: Sum(rhs),rhsMax =  -1.49949497263435E-13  4.31364372946306E-01
 cg2d: Sum(rhs),rhsMax =   1.35474964579885E-13  4.31238081650201E-01
 cg2d: Sum(rhs),rhsMax =   1.19210197269126E-13  4.31110826977656E-01
 cg2d: Sum(rhs),rhsMax =   5.49560397189452E-15  4.30981233093042E-01
 cg2d: Sum(rhs),rhsMax =  -2.98802649290053E-13  4.30851133144372E-01
 cg2d: Sum(rhs),rhsMax =  -1.69808611616418E-13  4.30720587409280E-01
 cg2d: Sum(rhs),rhsMax =   4.85167461761193E-14  4.30589978373622E-01
 cg2d: Sum(rhs),rhsMax =   1.96315186329343E-13  4.30459721404663E-01
 cg2d: Sum(rhs),rhsMax =   8.64724958304919E-14  4.30330190661025E-01
 cg2d: Sum(rhs),rhsMax =   6.18491369230867E-13  4.30201428853631E-01
 cg2d: Sum(rhs),rhsMax =  -6.46011022453763E-14  4.30074120084398E-01
 cg2d: Sum(rhs),rhsMax =   3.24434923371086E-13  4.29948554364073E-01
 cg2d: Sum(rhs),rhsMax =  -5.69266855876549E-14  4.29824985926774E-01
 cg2d: Sum(rhs),rhsMax =   1.95746197029223E-13  4.29703611716471E-01
 cg2d: Sum(rhs),rhsMax =  -2.74932854260612E-13  4.29604145447562E-01
 cg2d: Sum(rhs),rhsMax =   3.49054118942149E-13  4.29518764964693E-01
 cg2d: Sum(rhs),rhsMax =  -8.17956813392584E-14  4.29435063868080E-01
 cg2d: Sum(rhs),rhsMax =   2.77500245005058E-13  4.29352857210261E-01
 cg2d: Sum(rhs),rhsMax =   1.34336985979644E-14  4.29272097479021E-01
 cg2d: Sum(rhs),rhsMax =  -1.45161660469739E-14  4.29274968604346E-01
 cg2d: Sum(rhs),rhsMax =   1.48658862997308E-13  4.29387649278958E-01
 cg2d: Sum(rhs),rhsMax =   3.00967584188072E-13  4.29498689511569E-01
 cg2d: Sum(rhs),rhsMax =   5.07149877648772E-13  4.29608041082255E-01
 cg2d: Sum(rhs),rhsMax =   2.79248846268842E-13  4.29715692718545E-01
 cg2d: Sum(rhs),rhsMax =  -1.77607928364409E-13  4.29821633305471E-01
 cg2d: Sum(rhs),rhsMax =  -3.26030868968985E-13  4.29925870389979E-01
 cg2d: Sum(rhs),rhsMax =   4.95464780314592E-13  4.30028444678523E-01
 cg2d: Sum(rhs),rhsMax =  -5.23553422837608E-13  4.30129381370092E-01
 cg2d: Sum(rhs),rhsMax =  -2.00228722491147E-13  4.30228772106827E-01
 cg2d: Sum(rhs),rhsMax =  -5.62744295606876E-14  4.30326640251696E-01
 cg2d: Sum(rhs),rhsMax =  -9.98368054894172E-14  4.30423087736317E-01
 cg2d: Sum(rhs),rhsMax =   1.08607567383956E-13  4.30518185535175E-01
 cg2d: Sum(rhs),rhsMax =   9.49920697657092E-13  4.30612022152543E-01
 cg2d: Sum(rhs),rhsMax =   1.28050348102704E-13  4.30704603842394E-01
 cg2d: Sum(rhs),rhsMax =  -4.19372869764345E-13  4.30796372703430E-01
 cg2d: Sum(rhs),rhsMax =  -5.57262569422790E-13  4.30887271965820E-01
 cg2d: Sum(rhs),rhsMax =   1.95302107819373E-13  4.30977402827099E-01
 cg2d: Sum(rhs),rhsMax =  -3.45279360658424E-13  4.31066904085930E-01
 cg2d: Sum(rhs),rhsMax =   2.65953925548956E-13  4.31155894735938E-01
 cg2d: Sum(rhs),rhsMax =   2.23487894857044E-13  4.31244500227878E-01
 cg2d: Sum(rhs),rhsMax =  -3.30180327523522E-13  4.31332846781559E-01
 cg2d: Sum(rhs),rhsMax =   8.21287482466460E-14  4.31421023633661E-01
 cg2d: Sum(rhs),rhsMax =   5.13630804555021E-13  4.31509109392247E-01
 cg2d: Sum(rhs),rhsMax =   2.71685451913584E-13  4.31597168406347E-01
 cg2d: Sum(rhs),rhsMax =   7.43710648620777E-14  4.31685178437801E-01
 cg2d: Sum(rhs),rhsMax =  -3.33413852082742E-13  4.31773196850675E-01
 cg2d: Sum(rhs),rhsMax =  -1.20445320384022E-13  4.31861258048048E-01
 cg2d: Sum(rhs),rhsMax =  -1.44134704171961E-13  4.31949303313572E-01
 cg2d: Sum(rhs),rhsMax =  -6.10483885665758E-14  4.32037228157046E-01
 cg2d: Sum(rhs),rhsMax =  -1.82326376219066E-13  4.32124914312101E-01
 cg2d: Sum(rhs),rhsMax =  -3.95905530581331E-13  4.32212218197350E-01
 cg2d: Sum(rhs),rhsMax =   1.29909971668951E-13  4.32298971379429E-01
 cg2d: Sum(rhs),rhsMax =   4.60881333097518E-14  4.32384991143281E-01
 cg2d: Sum(rhs),rhsMax =  -6.25471896498198E-14  4.32470102171077E-01
 cg2d: Sum(rhs),rhsMax =   2.66037192275803E-13  4.32554045724380E-01
 cg2d: Sum(rhs),rhsMax =  -3.10459991048617E-13  4.32636842643212E-01
 cg2d: Sum(rhs),rhsMax =   4.31196744976603E-13  4.32718373355739E-01
 cg2d: Sum(rhs),rhsMax =   1.13326015238613E-13  4.32798511345808E-01
 cg2d: Sum(rhs),rhsMax =   2.35103603252185E-13  4.32877139758342E-01
 cg2d: Sum(rhs),rhsMax =  -1.39152578348956E-13  4.32954153807928E-01
 cg2d: Sum(rhs),rhsMax =   1.99340544071447E-13  4.33029446428808E-01
 cg2d: Sum(rhs),rhsMax =  -6.19365669862759E-14  4.33102966836607E-01
 cg2d: Sum(rhs),rhsMax =  -7.70633556967937E-14  4.33174651325884E-01
 cg2d: Sum(rhs),rhsMax =   3.92019749995143E-13  4.33244488402352E-01
 cg2d: Sum(rhs),rhsMax =  -1.55431223447522E-13  4.33312482512135E-01
 cg2d: Sum(rhs),rhsMax =  -3.14442916149460E-13  4.33378668705057E-01
 cg2d: Sum(rhs),rhsMax =   4.20205537032814E-13  4.33443124112502E-01
 cg2d: Sum(rhs),rhsMax =  -3.04242742110716E-13  4.33505918446156E-01
 cg2d: Sum(rhs),rhsMax =  -1.16309739617293E-13  4.33567147118782E-01
 cg2d: Sum(rhs),rhsMax =   6.63635812969687E-14  4.33626948145697E-01
 cg2d: Sum(rhs),rhsMax =   1.44328993201270E-15  4.33685476879537E-01
 cg2d: Sum(rhs),rhsMax =   4.97824004241920E-13  4.33742908142736E-01
 cg2d: Sum(rhs),rhsMax =  -3.03576608295941E-13  4.33799437751258E-01
 cg2d: Sum(rhs),rhsMax =   4.05925293378573E-13  4.33855247413394E-01
 cg2d: Sum(rhs),rhsMax =  -3.67261776546002E-13  4.33910548518613E-01
 cg2d: Sum(rhs),rhsMax =  -7.09432512735475E-14  4.33965535677490E-01
 cg2d: Sum(rhs),rhsMax =   4.74481565149176E-14  4.34020415109500E-01
 cg2d: Sum(rhs),rhsMax =   3.77753384128710E-13  4.34075373506604E-01
 cg2d: Sum(rhs),rhsMax =   1.55306323357252E-13  4.34130587757809E-01
 cg2d: Sum(rhs),rhsMax =   3.25836579939676E-13  4.34186195698373E-01
 cg2d: Sum(rhs),rhsMax =  -1.72778458207290E-14  4.34242293091606E-01
 cg2d: Sum(rhs),rhsMax =  -5.88556980929411E-14  4.34299072840168E-01
 cg2d: Sum(rhs),rhsMax =  -1.42372225120369E-13  4.34356514945492E-01
 cg2d: Sum(rhs),rhsMax =  -6.35422270356401E-13  4.34414690789704E-01
 cg2d: Sum(rhs),rhsMax =  -7.21506188128274E-14  4.34473578438178E-01
 cg2d: Sum(rhs),rhsMax =   2.81608070196171E-13  4.34533220802314E-01
 cg2d: Sum(rhs),rhsMax =  -7.17759185420164E-14  4.34593552109927E-01
 cg2d: Sum(rhs),rhsMax =   2.45706233137355E-13  4.34654453443802E-01
 cg2d: Sum(rhs),rhsMax =  -1.27342580924505E-13  4.34715743952368E-01
 cg2d: Sum(rhs),rhsMax =   3.75616204806306E-13  4.34777222085234E-01
 cg2d: Sum(rhs),rhsMax =  -1.34947608643188E-13  4.34838671475370E-01
 cg2d: Sum(rhs),rhsMax =  -6.22835116814713E-14  4.34899862875089E-01
 cg2d: Sum(rhs),rhsMax =  -3.74686393023183E-13  4.34960554502695E-01
 cg2d: Sum(rhs),rhsMax =  -3.56104035148519E-14  4.35020585168141E-01
 cg2d: Sum(rhs),rhsMax =   5.47964451591554E-13  4.35079758115185E-01
 cg2d: Sum(rhs),rhsMax =  -9.38416011564414E-14  4.35137758620224E-01
 cg2d: Sum(rhs),rhsMax =   1.57387991528424E-13  4.35194204633991E-01
 cg2d: Sum(rhs),rhsMax =   1.57374113740616E-14  4.35248943660555E-01
 cg2d: Sum(rhs),rhsMax =   1.60982338570648E-15  4.35301839558242E-01
 cg2d: Sum(rhs),rhsMax =  -1.31852861962045E-13  4.35352761068873E-01
 cg2d: Sum(rhs),rhsMax =   3.29514193708746E-13  4.35401617041413E-01
 cg2d: Sum(rhs),rhsMax =   2.69728683832682E-13  4.35448293247574E-01
 cg2d: Sum(rhs),rhsMax =   2.58182364376580E-13  4.35492822140119E-01
 cg2d: Sum(rhs),rhsMax =   2.20171103570976E-13  4.35535198174624E-01
 cg2d: Sum(rhs),rhsMax =   6.95749013956970E-13  4.35575447686030E-01
 cg2d: Sum(rhs),rhsMax =  -1.40679135007815E-13  4.35613627840136E-01
 cg2d: Sum(rhs),rhsMax =  -1.44328993201270E-13  4.35649720744728E-01
 cg2d: Sum(rhs),rhsMax =  -4.80573913996807E-13  4.35683684064373E-01
 cg2d: Sum(rhs),rhsMax =  -4.33306168723391E-13  4.35715624926482E-01
 cg2d: Sum(rhs),rhsMax =   1.17045262371107E-13  4.35749732783894E-01
 cg2d: Sum(rhs),rhsMax =   4.34374758384592E-13  4.35782103272612E-01
 cg2d: Sum(rhs),rhsMax =   1.55181423266981E-13  4.35812821576181E-01
 cg2d: Sum(rhs),rhsMax =  -2.53283505280422E-13  4.35842107707141E-01
 cg2d: Sum(rhs),rhsMax =  -4.27713420236842E-14  4.35870162591256E-01
 cg2d: Sum(rhs),rhsMax =  -1.75165437710234E-13  4.35897254391760E-01
 cg2d: Sum(rhs),rhsMax =   4.22578638747950E-14  4.35914078626667E-01
 cg2d: Sum(rhs),rhsMax =  -2.00811589579075E-13  4.35930542760473E-01
 cg2d: Sum(rhs),rhsMax =   2.03767558382140E-13  4.35947181134976E-01
 cg2d: Sum(rhs),rhsMax =  -9.36195565515163E-14  4.35964189006217E-01
 cg2d: Sum(rhs),rhsMax =   5.62716540031261E-13  4.35981827728478E-01
 cg2d: Sum(rhs),rhsMax =   5.25968157916168E-15  4.36000307507467E-01
 cg2d: Sum(rhs),rhsMax =  -2.75543476924156E-13  4.36019814976299E-01
 cg2d: Sum(rhs),rhsMax =  -1.08246744900953E-14  4.36040502721616E-01
 cg2d: Sum(rhs),rhsMax =   3.12805337188138E-13  4.36062468727152E-01
 cg2d: Sum(rhs),rhsMax =   5.18932119497606E-13  4.36085744719835E-01
 cg2d: Sum(rhs),rhsMax =   1.04458108829419E-13  4.36110370212941E-01
 cg2d: Sum(rhs),rhsMax =   2.56100696205408E-13  4.36136324444175E-01
 cg2d: Sum(rhs),rhsMax =  -2.22238893954341E-13  4.36163563388498E-01
 cg2d: Sum(rhs),rhsMax =  -1.63785651707826E-13  4.36191970594473E-01
 cg2d: Sum(rhs),rhsMax =   4.14945855453652E-14  4.36221430510597E-01
 cg2d: Sum(rhs),rhsMax =  -1.20778387291409E-13  4.36251595269658E-01
 cg2d: Sum(rhs),rhsMax =  -9.11354325339175E-14  4.36282183383738E-01
 cg2d: Sum(rhs),rhsMax =  -1.43260403540069E-13  4.36313043128518E-01
 cg2d: Sum(rhs),rhsMax =  -1.16240350678254E-13  4.36344010026789E-01
 cg2d: Sum(rhs),rhsMax =   4.29004054502968E-13  4.36374929925003E-01
 cg2d: Sum(rhs),rhsMax =  -3.70467545529607E-13  4.36405658237029E-01
 cg2d: Sum(rhs),rhsMax =   2.43804976207684E-13  4.36436103728415E-01
 cg2d: Sum(rhs),rhsMax =  -3.77947673158019E-13  4.36466275581842E-01
 cg2d: Sum(rhs),rhsMax =  -2.46747067222941E-14  4.36495878786252E-01
 cg2d: Sum(rhs),rhsMax =   1.90458759874446E-13  4.36524917354606E-01
 cg2d: Sum(rhs),rhsMax =   1.12687636999453E-13  4.36553328250847E-01
 cg2d: Sum(rhs),rhsMax =  -1.83297821365613E-13  4.36581126169391E-01
 cg2d: Sum(rhs),rhsMax =  -2.28192464923893E-13  4.36608325098169E-01
 cg2d: Sum(rhs),rhsMax =   2.42125763882939E-13  4.36634951840956E-01
 cg2d: Sum(rhs),rhsMax =   2.09721129351692E-13  4.36661055197043E-01
 cg2d: Sum(rhs),rhsMax =   2.08708050841722E-13  4.36686666471736E-01
 cg2d: Sum(rhs),rhsMax =   2.27831642440890E-13  4.36711905270905E-01
 cg2d: Sum(rhs),rhsMax =  -6.34492458573277E-14  4.36736848900127E-01
 cg2d: Sum(rhs),rhsMax =   3.38493122420402E-13  4.36761530112553E-01
 cg2d: Sum(rhs),rhsMax =   3.63736818442817E-14  4.36785805523700E-01
 cg2d: Sum(rhs),rhsMax =  -5.48533440891674E-13  4.36809808877279E-01
 cg2d: Sum(rhs),rhsMax =   3.46236928017163E-13  4.36833660264778E-01
 cg2d: Sum(rhs),rhsMax =   3.57588958443955E-13  4.36857512015207E-01
 cg2d: Sum(rhs),rhsMax =   2.72989963967518E-13  4.36881499188337E-01
 cg2d: Sum(rhs),rhsMax =  -1.58206781009085E-13  4.36905791098664E-01
 cg2d: Sum(rhs),rhsMax =  -5.23747711866918E-14  4.36930517259024E-01
 cg2d: Sum(rhs),rhsMax =   3.25753313212829E-13  4.36955815305768E-01
 cg2d: Sum(rhs),rhsMax =  -4.00790511889682E-14  4.36981779071853E-01
 cg2d: Sum(rhs),rhsMax =  -2.30523933275606E-13  4.37008442289482E-01
 cg2d: Sum(rhs),rhsMax =  -3.54938300972663E-13  4.37035789603332E-01
 cg2d: Sum(rhs),rhsMax =  -1.60108037938755E-13  4.37063883729039E-01
 cg2d: Sum(rhs),rhsMax =   4.07396338886201E-13  4.37092742850165E-01
 cg2d: Sum(rhs),rhsMax =  -7.71147035116826E-13  4.37122378758673E-01
 cg2d: Sum(rhs),rhsMax =   6.57945919968483E-14  4.37152762275854E-01
 cg2d: Sum(rhs),rhsMax =   6.51464993062234E-13  4.37183860449478E-01
 cg2d: Sum(rhs),rhsMax =  -3.81084053202585E-14  4.37215606240823E-01
 cg2d: Sum(rhs),rhsMax =  -5.22373810873944E-13  4.37247914801474E-01
 cg2d: Sum(rhs),rhsMax =   2.41043296433929E-13  4.37280414117565E-01
 cg2d: Sum(rhs),rhsMax =   9.33558785831679E-14  4.37311831094166E-01
 cg2d: Sum(rhs),rhsMax =  -2.88200019404883E-13  4.37343071277487E-01
 cg2d: Sum(rhs),rhsMax =  -3.27529670052229E-13  4.37374053057410E-01
 cg2d: Sum(rhs),rhsMax =  -1.18308141061618E-13  4.37404651960433E-01
 cg2d: Sum(rhs),rhsMax =  -3.75338649050150E-13  4.37434768809057E-01
 cg2d: Sum(rhs),rhsMax =  -1.52863832703076E-13  4.37464308337395E-01
 cg2d: Sum(rhs),rhsMax =  -1.58650870218935E-13  4.37493200712258E-01
 cg2d: Sum(rhs),rhsMax =   2.45969911105703E-13  4.37521378260094E-01
 cg2d: Sum(rhs),rhsMax =   6.54573617531184E-13  4.37548794524653E-01
 cg2d: Sum(rhs),rhsMax =   6.21724893790088E-14  4.37575417855337E-01
 cg2d: Sum(rhs),rhsMax =  -5.08620923156400E-14  4.37601245441060E-01
 cg2d: Sum(rhs),rhsMax =   3.93629573380849E-13  4.37626302169215E-01
 cg2d: Sum(rhs),rhsMax =   1.87280746466456E-13  4.37650602287316E-01
 cg2d: Sum(rhs),rhsMax =   4.05744882137071E-13  4.37674198102160E-01
 cg2d: Sum(rhs),rhsMax =   2.45845011015433E-13  4.37697143457316E-01
 cg2d: Sum(rhs),rhsMax =   4.03205246968241E-13  4.37719514489816E-01
 cg2d: Sum(rhs),rhsMax =   2.87631030104762E-13  4.37741396869184E-01
 cg2d: Sum(rhs),rhsMax =  -1.56902268955150E-13  4.37762892374038E-01
 cg2d: Sum(rhs),rhsMax =  -4.61436444609831E-14  4.37784104176034E-01
 cg2d: Sum(rhs),rhsMax =   1.72348246785248E-13  4.37805146720821E-01
 cg2d: Sum(rhs),rhsMax =   3.12957992854024E-13  4.37827768101276E-01
 cg2d: Sum(rhs),rhsMax =  -3.34315908290250E-13  4.37850435139045E-01
 cg2d: Sum(rhs),rhsMax =  -3.19272386306579E-13  4.37873118080323E-01
 cg2d: Sum(rhs),rhsMax =  -4.96963581397836E-14  4.37895754860554E-01
 cg2d: Sum(rhs),rhsMax =   3.20257709240934E-13  4.37918447055718E-01
 cg2d: Sum(rhs),rhsMax =   2.89282486853892E-13  4.37941327578788E-01
 cg2d: Sum(rhs),rhsMax =  -1.29729560427450E-13  4.37964439805694E-01
 cg2d: Sum(rhs),rhsMax =  -1.59858237758215E-13  4.37987933459464E-01
 cg2d: Sum(rhs),rhsMax =  -9.13158437754191E-14  4.38011887545059E-01
 cg2d: Sum(rhs),rhsMax =  -1.95954363846340E-14  4.38036369108477E-01
 cg2d: Sum(rhs),rhsMax =  -1.41123224217665E-13  4.38061430795371E-01
 cg2d: Sum(rhs),rhsMax =  -2.23640550522930E-13  4.38087106810037E-01
 cg2d: Sum(rhs),rhsMax =   1.60996216358456E-13  4.38113411218384E-01
 cg2d: Sum(rhs),rhsMax =  -1.53904666788662E-13  4.38140333420919E-01
 cg2d: Sum(rhs),rhsMax =   1.17503229368765E-13  4.38167853358649E-01
 cg2d: Sum(rhs),rhsMax =   1.45952694374785E-13  4.38195931047301E-01
 cg2d: Sum(rhs),rhsMax =  -7.39130978644198E-14  4.38224503699257E-01
 cg2d: Sum(rhs),rhsMax =  -7.16510184517460E-14  4.38253161403648E-01
 cg2d: Sum(rhs),rhsMax =   2.49744669389429E-13  4.38281746530645E-01
 cg2d: Sum(rhs),rhsMax =  -2.54504750607509E-13  4.38310159857923E-01
 cg2d: Sum(rhs),rhsMax =   3.02619040937202E-13  4.38338272150790E-01
 cg2d: Sum(rhs),rhsMax =  -2.69978484013222E-13  4.38365960880887E-01
 cg2d: Sum(rhs),rhsMax =  -1.23914767335975E-13  4.38393108023275E-01
 cg2d: Sum(rhs),rhsMax =   2.39377961896992E-13  4.38419609249842E-01
 cg2d: Sum(rhs),rhsMax =  -8.20454815197991E-14  4.38445365604819E-01
 cg2d: Sum(rhs),rhsMax =   2.70866662432923E-13  4.38470297852038E-01
 cg2d: Sum(rhs),rhsMax =   1.60080282363140E-13  4.38494347521871E-01
 cg2d: Sum(rhs),rhsMax =   1.96648253236731E-13  4.38517388618265E-01
 cg2d: Sum(rhs),rhsMax =  -1.61648472385423E-13  4.38539368226716E-01
 cg2d: Sum(rhs),rhsMax =  -9.47852907273727E-14  4.38560248393047E-01
 cg2d: Sum(rhs),rhsMax =  -4.60464999463284E-14  4.38580010034275E-01
 cg2d: Sum(rhs),rhsMax =  -1.16587295373449E-13  4.38598652323965E-01
 cg2d: Sum(rhs),rhsMax =   1.28466681736938E-13  4.38615161024719E-01
 cg2d: Sum(rhs),rhsMax =   6.30745455865167E-14  4.38632152544095E-01
 cg2d: Sum(rhs),rhsMax =  -3.10723669016966E-14  4.38647582151912E-01
 cg2d: Sum(rhs),rhsMax =  -2.55503951329672E-13  4.38662026434662E-01
 cg2d: Sum(rhs),rhsMax =   1.74651959561345E-13  4.38675549898406E-01
 cg2d: Sum(rhs),rhsMax =   6.00908212078366E-15  4.38688231939687E-01
 cg2d: Sum(rhs),rhsMax =   4.84293161129301E-13  4.38700152149440E-01
 cg2d: Sum(rhs),rhsMax =  -4.75453010295723E-14  4.38711397717104E-01
 cg2d: Sum(rhs),rhsMax =   2.61374255572377E-13  4.38722051269353E-01
 cg2d: Sum(rhs),rhsMax =   5.12478948166972E-13  4.38732024318061E-01
 cg2d: Sum(rhs),rhsMax =   2.11219930434936E-14  4.38741302554962E-01
 cg2d: Sum(rhs),rhsMax =  -9.15795217437676E-14  4.38749997676466E-01
 cg2d: Sum(rhs),rhsMax =  -6.42819131257966E-14  4.38758227761029E-01
 cg2d: Sum(rhs),rhsMax =  -3.16913162379251E-13  4.38766060916043E-01
 cg2d: Sum(rhs),rhsMax =   2.32092123297889E-13  4.38773628231354E-01
 cg2d: Sum(rhs),rhsMax =  -2.16410223075059E-13  4.38781049023528E-01
 cg2d: Sum(rhs),rhsMax =  -5.36237720893951E-14  4.38788371965514E-01
 cg2d: Sum(rhs),rhsMax =   2.25111596030558E-13  4.38795688713068E-01
 cg2d: Sum(rhs),rhsMax =   7.16510184517460E-14  4.38803066274738E-01
 cg2d: Sum(rhs),rhsMax =  -1.24983356997177E-13  4.38810544727961E-01
 cg2d: Sum(rhs),rhsMax =  -2.23335239191158E-13  4.38818162238771E-01
 cg2d: Sum(rhs),rhsMax =   3.12153081161171E-13  4.38825936175913E-01
 cg2d: Sum(rhs),rhsMax =  -3.08919556601950E-14  4.38833790608021E-01
 cg2d: Sum(rhs),rhsMax =  -2.34479102800833E-13  4.38841481589486E-01
 cg2d: Sum(rhs),rhsMax =   2.81982770466982E-13  4.38848966196992E-01
 cg2d: Sum(rhs),rhsMax =   1.40679135007815E-13  4.38856210481134E-01
 cg2d: Sum(rhs),rhsMax =   2.21489493412719E-14  4.38863165470639E-01
 cg2d: Sum(rhs),rhsMax =  -3.77031739162703E-13  4.38869816513109E-01
 cg2d: Sum(rhs),rhsMax =   1.99354421859255E-13  4.38876142028109E-01
 cg2d: Sum(rhs),rhsMax =  -1.21472276681800E-13  4.38882105778395E-01
 cg2d: Sum(rhs),rhsMax =   1.38042355324330E-13  4.38887697828948E-01
 cg2d: Sum(rhs),rhsMax =   2.27692864562812E-13  4.38892914662173E-01
 cg2d: Sum(rhs),rhsMax =  -5.27355936696949E-16  4.38897760388846E-01
 cg2d: Sum(rhs),rhsMax =  -3.44849149236381E-13  4.38903758396639E-01
 cg2d: Sum(rhs),rhsMax =   1.87211357527417E-14  4.38906997837542E-01
 cg2d: Sum(rhs),rhsMax =  -3.34302030502442E-13  4.38911053520260E-01
 cg2d: Sum(rhs),rhsMax =   4.94326801714351E-14  4.38915032210295E-01
 cg2d: Sum(rhs),rhsMax =   3.46944695195361E-14  4.38918950179555E-01
 cg2d: Sum(rhs),rhsMax =   5.52766166173058E-13  4.38922912591291E-01
 cg2d: Sum(rhs),rhsMax =  -6.74821309942786E-13  4.38926984420362E-01
 cg2d: Sum(rhs),rhsMax =  -6.13398221105399E-15  4.38931241958479E-01
 cg2d: Sum(rhs),rhsMax =   1.98410732288323E-13  4.38935765808813E-01
 cg2d: Sum(rhs),rhsMax =  -3.15691917052163E-13  4.38940646282313E-01
 cg2d: Sum(rhs),rhsMax =   2.62331822931117E-13  4.38945931931623E-01
 cg2d: Sum(rhs),rhsMax =   7.66053886991358E-14  4.38951737715453E-01
 cg2d: Sum(rhs),rhsMax =   9.95314941576453E-14  4.38958094760127E-01
 cg2d: Sum(rhs),rhsMax =   2.75751643741273E-14  4.38965080194873E-01
 cg2d: Sum(rhs),rhsMax =  -1.13881126750925E-13  4.38972727581340E-01
 cg2d: Sum(rhs),rhsMax =  -5.39887579087406E-13  4.38980824607731E-01
 cg2d: Sum(rhs),rhsMax =   1.06706310454285E-13  4.38989408112698E-01
 cg2d: Sum(rhs),rhsMax =   4.13113987463021E-13  4.38998533301952E-01
 cg2d: Sum(rhs),rhsMax =   2.78749245907761E-13  4.39008245600014E-01
 cg2d: Sum(rhs),rhsMax =  -4.82253126321552E-14  4.39018581254208E-01
 cg2d: Sum(rhs),rhsMax =   1.46840872794485E-13  4.39029567609432E-01
 cg2d: Sum(rhs),rhsMax =   1.28327903858860E-13  4.39041209639235E-01
 cg2d: Sum(rhs),rhsMax =  -2.77555756156289E-16  4.39054258286602E-01
 cg2d: Sum(rhs),rhsMax =   1.53516088730044E-13  4.39068146488807E-01
 cg2d: Sum(rhs),rhsMax =  -7.30943083837587E-14  4.39082665893120E-01
 cg2d: Sum(rhs),rhsMax =  -4.70345984382448E-13  4.39097784350704E-01
 cg2d: Sum(rhs),rhsMax =   2.01449967818235E-13  4.39113413371172E-01
 cg2d: Sum(rhs),rhsMax =  -5.78509462556553E-13  4.39129157765799E-01
 cg2d: Sum(rhs),rhsMax =  -2.58265631103427E-14  4.39144833070749E-01
 cg2d: Sum(rhs),rhsMax =   1.88460358430120E-14  4.39160304050428E-01
 cg2d: Sum(rhs),rhsMax =  -3.60211860339632E-13  4.39175441229402E-01
 cg2d: Sum(rhs),rhsMax =   3.60822483003176E-16  4.39190125600916E-01
 cg2d: Sum(rhs),rhsMax =  -4.05064870534488E-13  4.39204252500427E-01
 cg2d: Sum(rhs),rhsMax =  -2.94334001615937E-13  4.39217508387915E-01
 cg2d: Sum(rhs),rhsMax =  -2.34978703161914E-13  4.39230326811076E-01
 cg2d: Sum(rhs),rhsMax =  -1.38666855775682E-13  4.39242603697768E-01
 cg2d: Sum(rhs),rhsMax =  -5.60940183191860E-14  4.39254171422777E-01
 cg2d: Sum(rhs),rhsMax =  -3.40227845896379E-13  4.39265024739940E-01
 cg2d: Sum(rhs),rhsMax =  -9.46465128492946E-14  4.39275170404801E-01
 cg2d: Sum(rhs),rhsMax =   1.04027897407377E-13  4.39284608190889E-01
 cg2d: Sum(rhs),rhsMax =   1.49116829994966E-13  4.39293371646306E-01
 cg2d: Sum(rhs),rhsMax =  -3.37438410547009E-13  4.39301476998520E-01
 cg2d: Sum(rhs),rhsMax =   4.50472992241657E-14  4.39309007790374E-01
 cg2d: Sum(rhs),rhsMax =  -2.17589835038723E-13  4.39316059877288E-01
 cg2d: Sum(rhs),rhsMax =   3.70661834558916E-13  4.39322702801620E-01
 cg2d: Sum(rhs),rhsMax =  -1.36057831667813E-13  4.39329066927323E-01
 cg2d: Sum(rhs),rhsMax =   4.58744153775115E-13  4.39335215440196E-01
 cg2d: Sum(rhs),rhsMax =   3.55271367880050E-14  4.39341236801166E-01
 cg2d: Sum(rhs),rhsMax =   3.16927040167059E-13  4.39347229096826E-01
 cg2d: Sum(rhs),rhsMax =   1.21291865440298E-13  4.39353283943476E-01
 cg2d: Sum(rhs),rhsMax =  -6.42819131257966E-14  4.39359508701382E-01
 cg2d: Sum(rhs),rhsMax =   1.96384575268382E-13  4.39366035232616E-01
 cg2d: Sum(rhs),rhsMax =  -2.69700928257066E-13  4.39372875622605E-01
 cg2d: Sum(rhs),rhsMax =  -2.08152939329409E-13  4.39379999774676E-01
 cg2d: Sum(rhs),rhsMax =   2.29358199099750E-13  4.39387255700762E-01
 cg2d: Sum(rhs),rhsMax =  -1.65062408186145E-13  4.39394709651261E-01
 cg2d: Sum(rhs),rhsMax =   2.13634665513496E-13  4.39402431851265E-01
 cg2d: Sum(rhs),rhsMax =   2.50646725596937E-13  4.39410476482931E-01
 cg2d: Sum(rhs),rhsMax =   3.75074971081801E-13  4.39418886274843E-01
 cg2d: Sum(rhs),rhsMax =   8.12822031903693E-14  4.39427684504551E-01
 cg2d: Sum(rhs),rhsMax =   2.21239693232178E-13  4.39436881170416E-01
 cg2d: Sum(rhs),rhsMax =  -1.11730069640714E-13  4.39446471146013E-01
 cg2d: Sum(rhs),rhsMax =  -9.31060784026272E-14  4.39456370910121E-01
 cg2d: Sum(rhs),rhsMax =  -6.09512440519211E-14  4.39466578160008E-01
 cg2d: Sum(rhs),rhsMax =  -8.42242942056259E-14  4.39477068333913E-01
 cg2d: Sum(rhs),rhsMax =   2.68868260988597E-13  4.39487732251065E-01
 cg2d: Sum(rhs),rhsMax =   1.98854821498173E-13  4.39498325216081E-01
 cg2d: Sum(rhs),rhsMax =   2.36477504245158E-14  4.39508548144680E-01
 cg2d: Sum(rhs),rhsMax =   1.38680733563490E-13  4.39518267237332E-01
 cg2d: Sum(rhs),rhsMax =   6.28108676181682E-14  4.39528319146104E-01
 cg2d: Sum(rhs),rhsMax =   1.50796042319712E-13  4.39538010225629E-01
 cg2d: Sum(rhs),rhsMax =  -5.54167822741647E-13  4.39546812244289E-01
 cg2d: Sum(rhs),rhsMax =   5.34933208840016E-13  4.39554597437259E-01
 cg2d: Sum(rhs),rhsMax =   4.70554151199565E-13  4.39561252581385E-01
 cg2d: Sum(rhs),rhsMax =   2.34229302620292E-13  4.39566689464654E-01
 cg2d: Sum(rhs),rhsMax =  -2.59223198462166E-13  4.39570841976341E-01
 cg2d: Sum(rhs),rhsMax =  -7.92185761433473E-13  4.39573658749086E-01
 cg2d: Sum(rhs),rhsMax =   1.28910770946788E-13  4.39575113249339E-01
 cg2d: Sum(rhs),rhsMax =   3.59989815734707E-13  4.39575211303803E-01
 cg2d: Sum(rhs),rhsMax =  -1.46327394645596E-13  4.39574191687782E-01
 cg2d: Sum(rhs),rhsMax =   1.51254009317370E-13  4.39571872448239E-01
 cg2d: Sum(rhs),rhsMax =  -1.10272901920894E-13  4.39568357237441E-01
 cg2d: Sum(rhs),rhsMax =  -2.55337417875978E-13  4.39563695631705E-01
 cg2d: Sum(rhs),rhsMax =  -4.90274487674469E-13  4.39558005135543E-01
 cg2d: Sum(rhs),rhsMax =   2.41057174221737E-13  4.39551404885959E-01
 cg2d: Sum(rhs),rhsMax =   4.22495372021103E-13  4.39544024424071E-01
 cg2d: Sum(rhs),rhsMax =   1.44467771079348E-14  4.39536003483277E-01
 cg2d: Sum(rhs),rhsMax =   8.91578477713040E-13  4.39527475400448E-01
 cg2d: Sum(rhs),rhsMax =   5.37292432767345E-13  4.39518516834499E-01
 cg2d: Sum(rhs),rhsMax =   1.95427007909643E-13  4.39509358177388E-01
 cg2d: Sum(rhs),rhsMax =  -2.96263014121223E-13  4.39500137667618E-01
 cg2d: Sum(rhs),rhsMax =   2.59375854128052E-14  4.39490807148100E-01
 cg2d: Sum(rhs),rhsMax =  -1.98785432559134E-13  4.39481368779240E-01
 cg2d: Sum(rhs),rhsMax =   2.25847118784372E-13  4.39471984865404E-01
 cg2d: Sum(rhs),rhsMax =   3.44030359755720E-14  4.39462799698874E-01
 cg2d: Sum(rhs),rhsMax =  -2.06390460277817E-13  4.39453950261005E-01
 cg2d: Sum(rhs),rhsMax =  -2.39253061806721E-14  4.39445567939458E-01
 cg2d: Sum(rhs),rhsMax =   1.17544862732188E-13  4.39437725683070E-01
 cg2d: Sum(rhs),rhsMax =   5.24580379135386E-15  4.39430551440569E-01
 cg2d: Sum(rhs),rhsMax =   1.34003919072256E-13  4.39424107332960E-01
 cg2d: Sum(rhs),rhsMax =   2.11622386281363E-13  4.39408087563416E-01
 cg2d: Sum(rhs),rhsMax =   1.90680804479371E-13  4.39392834522296E-01
 cg2d: Sum(rhs),rhsMax =  -1.08246744900953E-14  4.39378712104807E-01
 cg2d: Sum(rhs),rhsMax =   1.47978851394726E-13  4.39365696563192E-01
 cg2d: Sum(rhs),rhsMax =   2.50521825506667E-13  4.39353851294417E-01
 cg2d: Sum(rhs),rhsMax =   2.24043006369357E-13  4.39342967698798E-01
 cg2d: Sum(rhs),rhsMax =   3.22852855560996E-13  4.39332897933728E-01
 cg2d: Sum(rhs),rhsMax =   1.43315914691300E-13  4.39323564139964E-01
 cg2d: Sum(rhs),rhsMax =   9.19958553780020E-14  4.39314923765953E-01
 cg2d: Sum(rhs),rhsMax =   1.49769086021934E-13  4.39306954975516E-01
 cg2d: Sum(rhs),rhsMax =   1.36571309816702E-13  4.39299558728830E-01
 cg2d: Sum(rhs),rhsMax =   2.10845230164125E-13  4.39292658646148E-01
 cg2d: Sum(rhs),rhsMax =   1.12396203455489E-13  4.39286194813018E-01
 cg2d: Sum(rhs),rhsMax =  -5.97868976548455E-13  4.39280084983079E-01
 cg2d: Sum(rhs),rhsMax =  -2.65482080763491E-13  4.39274273079592E-01
 cg2d: Sum(rhs),rhsMax =   4.23827639650654E-13  4.39268686799234E-01
 cg2d: Sum(rhs),rhsMax =   4.98073804422461E-13  4.39263290412934E-01
 cg2d: Sum(rhs),rhsMax =  -4.36178870799608E-14  4.39258049577677E-01
 cg2d: Sum(rhs),rhsMax =   2.19477214180586E-13  4.39252936269329E-01
 cg2d: Sum(rhs),rhsMax =   3.00634517280685E-13  4.39248409210897E-01
 cg2d: Sum(rhs),rhsMax =  -1.55250812206020E-13  4.39244041967384E-01
 cg2d: Sum(rhs),rhsMax =  -5.02778374489310E-13  4.39239793664050E-01
 cg2d: Sum(rhs),rhsMax =   4.20913304211012E-13  4.39235687292724E-01
 cg2d: Sum(rhs),rhsMax =  -1.59136592792208E-13  4.39231761966682E-01
 cg2d: Sum(rhs),rhsMax =  -1.59705582092329E-13  4.39228041309467E-01
 cg2d: Sum(rhs),rhsMax =   3.50053319664312E-13  4.39224591461913E-01
 cg2d: Sum(rhs),rhsMax =  -1.32158173293817E-13  4.39221451466918E-01
 cg2d: Sum(rhs),rhsMax =  -1.08441033930262E-13  4.39218675057638E-01
 cg2d: Sum(rhs),rhsMax =  -2.23071561222810E-13  4.39216317346361E-01
 cg2d: Sum(rhs),rhsMax =  -8.52234949277886E-14  4.39214109866630E-01
 cg2d: Sum(rhs),rhsMax =  -8.07132138902489E-14  4.39212113127663E-01
 cg2d: Sum(rhs),rhsMax =  -5.93969318174459E-15  4.39210404433011E-01
 cg2d: Sum(rhs),rhsMax =  -3.28764793167124E-14  4.39209065346967E-01
 cg2d: Sum(rhs),rhsMax =  -1.57013291257613E-13  4.39208166443526E-01
 cg2d: Sum(rhs),rhsMax =  -2.43763342844261E-13  4.39207785438297E-01
 cg2d: Sum(rhs),rhsMax =   9.83796377695967E-14  4.39207977899798E-01
 cg2d: Sum(rhs),rhsMax =  -2.61859978145651E-13  4.39208792492346E-01
 cg2d: Sum(rhs),rhsMax =  -3.39173134022985E-13  4.39210262413144E-01
 cg2d: Sum(rhs),rhsMax =   2.87131429743681E-14  4.39215221061931E-01
 cg2d: Sum(rhs),rhsMax =  -1.63133395680859E-13  4.39220827588548E-01
 cg2d: Sum(rhs),rhsMax =  -6.32549568280183E-14  4.39227033619252E-01
 cg2d: Sum(rhs),rhsMax =  -2.04253280955413E-13  4.39233791698211E-01
 cg2d: Sum(rhs),rhsMax =  -4.81559236931162E-14  4.39241025751304E-01
 cg2d: Sum(rhs),rhsMax =   2.58779109252316E-13  4.39248641236161E-01
 cg2d: Sum(rhs),rhsMax =  -2.98358560080203E-13  4.39256227823054E-01
 cg2d: Sum(rhs),rhsMax =   5.82936476867246E-13  4.39263603025061E-01
 cg2d: Sum(rhs),rhsMax =   5.67046409827299E-14  4.39270666712949E-01
 cg2d: Sum(rhs),rhsMax =  -6.33174068731535E-13  4.39277290742873E-01
 cg2d: Sum(rhs),rhsMax =   4.27727298024649E-13  4.39283435187555E-01
 cg2d: Sum(rhs),rhsMax =  -1.35835787062888E-13  4.39288990440865E-01
 cg2d: Sum(rhs),rhsMax =   2.02837746599016E-13  4.39293850309280E-01
 cg2d: Sum(rhs),rhsMax =  -1.45675138618628E-13  4.39298020319869E-01
 cg2d: Sum(rhs),rhsMax =   1.34184330313758E-13  4.39301462944979E-01
 cg2d: Sum(rhs),rhsMax =   3.99985600196828E-13  4.39304190936404E-01
 cg2d: Sum(rhs),rhsMax =   3.93948762500429E-13  4.39306188201063E-01
 cg2d: Sum(rhs),rhsMax =  -2.57210919230033E-13  4.39307491802462E-01
 cg2d: Sum(rhs),rhsMax =   5.84449155738298E-13  4.39308143240302E-01
 cg2d: Sum(rhs),rhsMax =  -1.83131287911920E-13  4.39308191909428E-01
 cg2d: Sum(rhs),rhsMax =  -1.09370845713386E-13  4.39307730934061E-01
 cg2d: Sum(rhs),rhsMax =   6.44623243672982E-14  4.39306807711046E-01
 cg2d: Sum(rhs),rhsMax =   4.58438842443343E-13  4.39305560375949E-01
 cg2d: Sum(rhs),rhsMax =   1.86087256714984E-13  4.39304072482332E-01
 cg2d: Sum(rhs),rhsMax =  -1.81119008679786E-13  4.39302442540105E-01
 cg2d: Sum(rhs),rhsMax =  -3.16691117774326E-13  4.39300788861898E-01
 cg2d: Sum(rhs),rhsMax =   2.22530327498305E-13  4.39299231665241E-01
 cg2d: Sum(rhs),rhsMax =   3.41990324947972E-13  4.39297855298531E-01
 cg2d: Sum(rhs),rhsMax =  -4.82947015711943E-14  4.39296781923416E-01
 cg2d: Sum(rhs),rhsMax =   3.26891291813070E-13  4.39295910734894E-01
 cg2d: Sum(rhs),rhsMax =  -1.48214773787458E-13  4.39295172847604E-01
 cg2d: Sum(rhs),rhsMax =  -1.47798440153224E-14  4.39294647141895E-01
 cg2d: Sum(rhs),rhsMax =  -1.77607928364409E-13  4.39294453771951E-01
 cg2d: Sum(rhs),rhsMax =  -4.90857354762397E-14  4.39294660806987E-01
 cg2d: Sum(rhs),rhsMax =  -6.63497035091609E-14  4.39295355293250E-01
 cg2d: Sum(rhs),rhsMax =  -8.69582184037654E-14  4.39296600320005E-01
 cg2d: Sum(rhs),rhsMax =  -3.69287933565943E-14  4.39298463646079E-01
 cg2d: Sum(rhs),rhsMax =   1.61592961234192E-13  4.39300954792167E-01
 cg2d: Sum(rhs),rhsMax =   1.08094089235067E-13  4.39304104569496E-01
 cg2d: Sum(rhs),rhsMax =   4.07382461098393E-13  4.39307897046481E-01
 cg2d: Sum(rhs),rhsMax =  -3.64791530316211E-13  4.39312325629577E-01
 cg2d: Sum(rhs),rhsMax =   2.81163980986321E-14  4.39317330783542E-01
 cg2d: Sum(rhs),rhsMax =  -2.23890350703471E-13  4.39322867579446E-01
 cg2d: Sum(rhs),rhsMax =   2.38198349933327E-13  4.39328844267146E-01
 cg2d: Sum(rhs),rhsMax =   2.03864702896794E-14  4.39334877936552E-01
 cg2d: Sum(rhs),rhsMax =  -1.87141968588378E-13  4.39340761729773E-01
 cg2d: Sum(rhs),rhsMax =   5.17641485231479E-15  4.39346383425498E-01
 cg2d: Sum(rhs),rhsMax =   1.44786960198928E-13  4.39351621514094E-01
 cg2d: Sum(rhs),rhsMax =   3.16691117774326E-14  4.39356395532800E-01
 cg2d: Sum(rhs),rhsMax =   2.79540279812807E-13  4.39360591669382E-01
 cg2d: Sum(rhs),rhsMax =  -1.63452584800439E-13  4.39364141051255E-01
 cg2d: Sum(rhs),rhsMax =  -2.76195732951123E-13  4.39366963054529E-01
 cg2d: Sum(rhs),rhsMax =  -1.08829611988881E-13  4.39369029443096E-01
 cg2d: Sum(rhs),rhsMax =   2.20073959056322E-13  4.39370294982341E-01
 cg2d: Sum(rhs),rhsMax =   1.92484916894387E-13  4.39370763921855E-01
 cg2d: Sum(rhs),rhsMax =   1.93969840189823E-13  4.39423929372823E-01
 cg2d: Sum(rhs),rhsMax =  -2.75682254802234E-13  4.39535930778749E-01
 cg2d: Sum(rhs),rhsMax =   2.06890060638898E-13  4.39647848142863E-01
 cg2d: Sum(rhs),rhsMax =   2.56253351871294E-13  4.39759753567333E-01
 cg2d: Sum(rhs),rhsMax =   5.57748291996063E-14  4.39871735045456E-01
 cg2d: Sum(rhs),rhsMax =   3.46528361561127E-14  4.39983909253837E-01
 cg2d: Sum(rhs),rhsMax =  -1.38777878078145E-13  4.40096332672828E-01
 cg2d: Sum(rhs),rhsMax =   4.41410796803154E-13  4.40208982456986E-01
 cg2d: Sum(rhs),rhsMax =  -1.87239113103033E-13  4.40321846463851E-01
 cg2d: Sum(rhs),rhsMax =  -3.01703106941886E-14  4.40434881590070E-01
 cg2d: Sum(rhs),rhsMax =   1.83519865970538E-13  4.40548033116194E-01
 cg2d: Sum(rhs),rhsMax =  -8.90537643627454E-14  4.40661084640953E-01
 cg2d: Sum(rhs),rhsMax =   2.66911492907695E-13  4.40774081981262E-01
 cg2d: Sum(rhs),rhsMax =   2.10081951834695E-13  4.40886942560925E-01
 cg2d: Sum(rhs),rhsMax =  -1.24067423001861E-13  4.40999622969792E-01
 cg2d: Sum(rhs),rhsMax =   3.95933286156946E-14  4.41112029440967E-01
 cg2d: Sum(rhs),rhsMax =  -2.95818924911373E-13  4.41224087852775E-01
 cg2d: Sum(rhs),rhsMax =   6.24819640471230E-13  4.41335700254835E-01
 cg2d: Sum(rhs),rhsMax =   5.51780843238703E-13  4.41446782368556E-01
 cg2d: Sum(rhs),rhsMax =  -1.36723965482588E-13  4.41557233788387E-01
 cg2d: Sum(rhs),rhsMax =   1.62828084349087E-13  4.41666987253568E-01
 cg2d: Sum(rhs),rhsMax =   4.30072644164170E-14  4.41775817297026E-01
 cg2d: Sum(rhs),rhsMax =  -5.45813394481343E-13  4.41883684445293E-01
 cg2d: Sum(rhs),rhsMax =  -9.72139035937403E-14  4.41990491280745E-01
 cg2d: Sum(rhs),rhsMax =  -5.04457586814056E-13  4.42096225929445E-01
 cg2d: Sum(rhs),rhsMax =   3.06407677008735E-13  4.42200871270287E-01
 cg2d: Sum(rhs),rhsMax =  -1.11285980430864E-13  4.42304437642854E-01
 cg2d: Sum(rhs),rhsMax =  -2.74086309204336E-14  4.42406961261345E-01
 cg2d: Sum(rhs),rhsMax =  -3.27515792264421E-13  4.42508514440593E-01
 cg2d: Sum(rhs),rhsMax =   1.62050928231849E-13  4.42609177528898E-01
 cg2d: Sum(rhs),rhsMax =   4.07895939247283E-13  4.42709069537483E-01
 cg2d: Sum(rhs),rhsMax =  -2.23029927859386E-13  4.42808312302933E-01
 cg2d: Sum(rhs),rhsMax =   1.41733846881209E-13  4.42907062361571E-01
 cg2d: Sum(rhs),rhsMax =  -1.09856568286659E-13  4.43005498158181E-01
 cg2d: Sum(rhs),rhsMax =   3.15886206081473E-13  4.43103785746408E-01
 cg2d: Sum(rhs),rhsMax =   6.16173778666962E-14  4.43202133969598E-01
 cg2d: Sum(rhs),rhsMax =   2.01089145335231E-14  4.43300772980109E-01
 cg2d: Sum(rhs),rhsMax =  -8.67361737988404E-14  4.43399870395288E-01
 cg2d: Sum(rhs),rhsMax =  -2.44956832595733E-13  4.43499611853215E-01
 cg2d: Sum(rhs),rhsMax =  -5.28466159721575E-14  4.43600165191081E-01
 cg2d: Sum(rhs),rhsMax =   1.63202784619898E-13  4.43701679431690E-01
 cg2d: Sum(rhs),rhsMax =  -2.00409133732649E-13  4.43804297717589E-01
 cg2d: Sum(rhs),rhsMax =  -1.64215863129868E-13  4.43908016692071E-01
 cg2d: Sum(rhs),rhsMax =   1.91791027503996E-14  4.44012899965648E-01
 cg2d: Sum(rhs),rhsMax =   7.22616411152899E-14  4.44119001068542E-01
 cg2d: Sum(rhs),rhsMax =  -4.81142903296927E-14  4.44226328916336E-01
 cg2d: Sum(rhs),rhsMax =  -3.79418718665647E-13  4.44334910751080E-01
 cg2d: Sum(rhs),rhsMax =  -1.76123005068973E-13  4.44444677176212E-01
 cg2d: Sum(rhs),rhsMax =   3.13776782334685E-14  4.44555583745028E-01
 cg2d: Sum(rhs),rhsMax =   2.44526621173691E-14  4.44667528149153E-01
 cg2d: Sum(rhs),rhsMax =   9.41052791247898E-14  4.44780420362999E-01
 cg2d: Sum(rhs),rhsMax =  -5.55569479310236E-13  4.44894432140490E-01
 cg2d: Sum(rhs),rhsMax =  -1.05637720793084E-13  4.45009082209285E-01
 cg2d: Sum(rhs),rhsMax =   3.30097060796675E-13  4.45124389098449E-01
 cg2d: Sum(rhs),rhsMax =  -1.20389809232790E-13  4.45240259558724E-01
 cg2d: Sum(rhs),rhsMax =   2.17770246280224E-13  4.45356494232785E-01
 cg2d: Sum(rhs),rhsMax =   3.31790150909228E-13  4.45472915252026E-01
 cg2d: Sum(rhs),rhsMax =  -1.46133105616286E-14  4.45589321442571E-01
 cg2d: Sum(rhs),rhsMax =  -2.59431365279283E-13  4.45705546228570E-01
 cg2d: Sum(rhs),rhsMax =   3.64222541016090E-13  4.45821396004203E-01
 cg2d: Sum(rhs),rhsMax =   1.22443721828347E-13  4.45936712223872E-01
 cg2d: Sum(rhs),rhsMax =  -2.57904808620424E-13  4.46051319527663E-01
 cg2d: Sum(rhs),rhsMax =   1.04291575375726E-13  4.46165052537040E-01
 cg2d: Sum(rhs),rhsMax =  -1.84324777663392E-13  4.46277871471751E-01
 cg2d: Sum(rhs),rhsMax =  -2.77333711551364E-13  4.46389034436455E-01
 cg2d: Sum(rhs),rhsMax =   2.64260835436403E-13  4.46499786262446E-01
 cg2d: Sum(rhs),rhsMax =  -4.37455627277927E-13  4.46608404239488E-01
 cg2d: Sum(rhs),rhsMax =  -2.61374255572377E-13  4.46716620781502E-01
 cg2d: Sum(rhs),rhsMax =   6.02573546615304E-14  4.46822665169247E-01
 cg2d: Sum(rhs),rhsMax =   2.10248485288389E-13  4.46928385521073E-01
 cg2d: Sum(rhs),rhsMax =   5.36473643286683E-13  4.47031989265302E-01
 cg2d: Sum(rhs),rhsMax =   2.09318673505265E-13  4.47135445646986E-01
 cg2d: Sum(rhs),rhsMax =  -6.63358257213531E-14  4.47236944840493E-01
 cg2d: Sum(rhs),rhsMax =   2.00062189037453E-13  4.47338550997018E-01
 cg2d: Sum(rhs),rhsMax =  -1.94066984704477E-13  4.47438952098001E-01
 cg2d: Sum(rhs),rhsMax =   3.22283866260875E-13  4.47539763689791E-01
 cg2d: Sum(rhs),rhsMax =   1.19765308781439E-14  4.47639132891810E-01
 cg2d: Sum(rhs),rhsMax =  -4.51513826327243E-13  4.47739205581743E-01
 cg2d: Sum(rhs),rhsMax =  -1.56541446472147E-14  4.47838117476993E-01
 cg2d: Sum(rhs),rhsMax =   1.20597976049908E-14  4.47938157538805E-01
 cg2d: Sum(rhs),rhsMax =  -2.70061750740069E-13  4.48037437836545E-01
 cg2d: Sum(rhs),rhsMax =   1.29479760246909E-14  4.48138051523101E-01
 cg2d: Sum(rhs),rhsMax =   1.48964174329080E-13  4.48238349586037E-01
 cg2d: Sum(rhs),rhsMax =  -2.14495088357580E-13  4.48339325098391E-01
 cg2d: Sum(rhs),rhsMax =  -2.30149233004795E-13  4.48440737902731E-01
 cg2d: Sum(rhs),rhsMax =   2.16104911743287E-13  4.48542593475641E-01
 cg2d: Sum(rhs),rhsMax =   1.55833679293949E-13  4.48644851752734E-01
 cg2d: Sum(rhs),rhsMax =  -4.43339809308441E-13  4.48747432314576E-01
 cg2d: Sum(rhs),rhsMax =   6.87061518789278E-13  4.48850259984007E-01
 cg2d: Sum(rhs),rhsMax =  -3.98292510084275E-15  4.48953193788006E-01
 cg2d: Sum(rhs),rhsMax =  -3.14609449603154E-14  4.49056114907478E-01
 cg2d: Sum(rhs),rhsMax =   2.23057683435002E-13  4.49159048884988E-01
 cg2d: Sum(rhs),rhsMax =   1.79536940869696E-13  4.49261753498992E-01
 cg2d: Sum(rhs),rhsMax =   6.84868828315643E-14  4.49363801970860E-01
 cg2d: Sum(rhs),rhsMax =   1.02903796594944E-13  4.49465282086393E-01
 cg2d: Sum(rhs),rhsMax =   2.08486006236797E-13  4.49565986538037E-01
 cg2d: Sum(rhs),rhsMax =   2.22405427408034E-13  4.49665557070219E-01
 cg2d: Sum(rhs),rhsMax =  -1.27328703136698E-13  4.49763964867910E-01
 cg2d: Sum(rhs),rhsMax =  -2.17673101765570E-13  4.49861065218483E-01
 cg2d: Sum(rhs),rhsMax =   3.06282776918465E-13  4.49956650409046E-01
 cg2d: Sum(rhs),rhsMax =   1.39777078800307E-13  4.50050588078073E-01
 cg2d: Sum(rhs),rhsMax =   1.79148362811077E-13  4.50142746159980E-01
 cg2d: Sum(rhs),rhsMax =  -1.06317732395667E-13  4.50233040302693E-01
 cg2d: Sum(rhs),rhsMax =  -7.87564458093470E-14  4.50321388001007E-01
 cg2d: Sum(rhs),rhsMax =  -2.96360158635878E-13  4.50407733501032E-01
 cg2d: Sum(rhs),rhsMax =  -2.08263961631872E-13  4.50492039914498E-01
 cg2d: Sum(rhs),rhsMax =  -4.01484401280072E-14  4.50574323969734E-01
 cg2d: Sum(rhs),rhsMax =   7.33024752008760E-14  4.50654608531038E-01
 cg2d: Sum(rhs),rhsMax =   6.73391897798581E-13  4.50732971874195E-01
 cg2d: Sum(rhs),rhsMax =  -7.00689506416552E-14  4.50809506750993E-01
 cg2d: Sum(rhs),rhsMax =   3.11639603012281E-13  4.50884350399237E-01
 cg2d: Sum(rhs),rhsMax =  -8.34610158761961E-14  4.50957654804302E-01
 cg2d: Sum(rhs),rhsMax =   8.63906168824258E-13  4.51029619072435E-01
 cg2d: Sum(rhs),rhsMax =   2.26041407813682E-13  4.51100441324175E-01
 cg2d: Sum(rhs),rhsMax =  -8.84570194870093E-14  4.51170352538202E-01
 cg2d: Sum(rhs),rhsMax =   9.93094495527203E-14  4.51239609559180E-01
 cg2d: Sum(rhs),rhsMax =   3.10376724321770E-13  4.51310921714395E-01
 cg2d: Sum(rhs),rhsMax =   2.18838835941426E-13  4.51382247037579E-01
 cg2d: Sum(rhs),rhsMax =   2.56406007537180E-13  4.51453698216762E-01
 cg2d: Sum(rhs),rhsMax =  -3.90285026519166E-13  4.51506943227682E-01
 cg2d: Sum(rhs),rhsMax =  -1.88807303125316E-13  4.51489279860514E-01
 cg2d: Sum(rhs),rhsMax =   3.24434923371086E-13  4.51470882887517E-01
 cg2d: Sum(rhs),rhsMax =   1.92956761679852E-13  4.51453862376111E-01
 cg2d: Sum(rhs),rhsMax =  -7.76601005725297E-14  4.51437754993666E-01
 cg2d: Sum(rhs),rhsMax =   6.93889390390723E-15  4.51422780517109E-01
 cg2d: Sum(rhs),rhsMax =  -3.43614026121486E-14  4.51409008794855E-01
 cg2d: Sum(rhs),rhsMax =  -1.01085806392121E-13  4.51396502906928E-01
 cg2d: Sum(rhs),rhsMax =  -3.22311621836491E-13  4.51385259982466E-01
 cg2d: Sum(rhs),rhsMax =  -2.54435361668470E-13  4.51375239417297E-01
 cg2d: Sum(rhs),rhsMax =   4.07146538705661E-13  4.51366351016160E-01
 cg2d: Sum(rhs),rhsMax =  -3.47569195646713E-13  4.51358467026769E-01
 cg2d: Sum(rhs),rhsMax =   2.65357180673220E-13  4.51351539495636E-01
 cg2d: Sum(rhs),rhsMax =  -7.65498775479045E-14  4.51345448071556E-01
 cg2d: Sum(rhs),rhsMax =   2.75224287804576E-13  4.51339949271694E-01
 cg2d: Sum(rhs),rhsMax =   2.38753461445640E-13  4.51334800985075E-01
 cg2d: Sum(rhs),rhsMax =  -2.73711608933525E-13  4.51329718147156E-01
 cg2d: Sum(rhs),rhsMax =  -1.04291575375726E-13  4.51324426950168E-01
 cg2d: Sum(rhs),rhsMax =   2.47663001218257E-13  4.51318553625018E-01
 cg2d: Sum(rhs),rhsMax =  -3.71397357312730E-13  4.51311801015542E-01
 cg2d: Sum(rhs),rhsMax =  -1.27481358802584E-13  4.51303898087794E-01
 cg2d: Sum(rhs),rhsMax =  -2.62623256475081E-13  4.51294585383282E-01
 cg2d: Sum(rhs),rhsMax =  -3.20771187389823E-13  4.51283645224012E-01
 cg2d: Sum(rhs),rhsMax =  -2.89129831188006E-13  4.51270888404291E-01
 cg2d: Sum(rhs),rhsMax =   1.76469949764169E-13  4.51256132034621E-01
 cg2d: Sum(rhs),rhsMax =  -1.74943393105309E-13  4.51239249814939E-01
 cg2d: Sum(rhs),rhsMax =   2.22710738739806E-13  4.51221612666520E-01
 cg2d: Sum(rhs),rhsMax =   5.64104318812042E-13  4.51201725544542E-01
 cg2d: Sum(rhs),rhsMax =   1.13381526389844E-13  4.51179581379130E-01
 cg2d: Sum(rhs),rhsMax =   2.10234607500581E-13  4.51155222741745E-01
 cg2d: Sum(rhs),rhsMax =   1.49380507963315E-13  4.51128725848125E-01
 cg2d: Sum(rhs),rhsMax =   1.57110435772267E-13  4.51100209964716E-01
 cg2d: Sum(rhs),rhsMax =   4.27463620056301E-13  4.51069822348291E-01
 cg2d: Sum(rhs),rhsMax =  -2.95430346852754E-13  4.51037773196010E-01
 cg2d: Sum(rhs),rhsMax =  -1.09259823410923E-13  4.51004355438164E-01
 cg2d: Sum(rhs),rhsMax =   5.03069808033274E-14  4.50970032028179E-01
 cg2d: Sum(rhs),rhsMax =   3.06921155157625E-13  4.50935011077828E-01
 cg2d: Sum(rhs),rhsMax =   2.07583950029289E-13  4.50899556561134E-01
 cg2d: Sum(rhs),rhsMax =  -5.21249710061511E-14  4.50863948512821E-01
 cg2d: Sum(rhs),rhsMax =  -1.86739512741951E-13  4.50828454923525E-01
 cg2d: Sum(rhs),rhsMax =   2.91863755386146E-13  4.50793345064385E-01
 cg2d: Sum(rhs),rhsMax =  -2.57557863925229E-13  4.50758872840185E-01
 cg2d: Sum(rhs),rhsMax =   1.48658862997308E-13  4.50725257172872E-01
 cg2d: Sum(rhs),rhsMax =   2.80719891776471E-13  4.50692712189364E-01
 cg2d: Sum(rhs),rhsMax =  -1.83464354819307E-14  4.50661404981749E-01
 cg2d: Sum(rhs),rhsMax =  -5.06122921350993E-14  4.50631481321902E-01
 cg2d: Sum(rhs),rhsMax =   2.98872038229092E-13  4.50603041655048E-01
 cg2d: Sum(rhs),rhsMax =  -1.05165876007618E-13  4.50576170525885E-01
 cg2d: Sum(rhs),rhsMax =  -1.25802146477838E-13  4.50550897975389E-01
 cg2d: Sum(rhs),rhsMax =   1.24011911850630E-13  4.50527219750772E-01
 cg2d: Sum(rhs),rhsMax =  -1.45730649769860E-13  4.50505118507726E-01
 cg2d: Sum(rhs),rhsMax =  -4.86416462663897E-14  4.50484523885887E-01
 cg2d: Sum(rhs),rhsMax =   5.38000199945543E-13  4.50465535044337E-01
 cg2d: Sum(rhs),rhsMax =   1.99451566373909E-13  4.50448051579007E-01
 cg2d: Sum(rhs),rhsMax =  -1.44675937896466E-13  4.50431905657308E-01
 cg2d: Sum(rhs),rhsMax =  -2.14953055355238E-13  4.50416905620673E-01
 cg2d: Sum(rhs),rhsMax =   2.47857290247566E-14  4.50402831472846E-01
 cg2d: Sum(rhs),rhsMax =  -3.77059494738319E-13  4.50389518842966E-01
(PID.TID 0000.0001) // =======================================================
(PID.TID 0000.0001) // Begin MONITOR dynamic field statistics
(PID.TID 0000.0001) // =======================================================
(PID.TID 0000.0001) %MON time_tsnumber                =                 12960
(PID.TID 0000.0001) %MON time_secondsf                =   1.5552000000000E+07
(PID.TID 0000.0001) %MON dynstat_eta_max              =   1.7201826121038E-01
(PID.TID 0000.0001) %MON dynstat_eta_min              =  -2.2575937791667E-01
(PID.TID 0000.0001) %MON dynstat_eta_mean             =  -8.3042343856650E-17
(PID.TID 0000.0001) %MON dynstat_eta_sd               =   1.0707442883419E-01
(PID.TID 0000.0001) %MON dynstat_eta_del2             =   3.4246283529050E-04
(PID.TID 0000.0001) %MON dynstat_uvel_max             =   2.8925978555324E-01
(PID.TID 0000.0001) %MON dynstat_uvel_min             =  -4.2720525433657E-01
(PID.TID 0000.0001) %MON dynstat_uvel_mean            =   4.8657428273955E-05
(PID.TID 0000.0001) %MON dynstat_uvel_sd              =   1.0983305894529E-02
(PID.TID 0000.0001) %MON dynstat_uvel_del2            =   3.3066141850034E-04
(PID.TID 0000.0001) %MON dynstat_vvel_max             =   3.8084602307442E-01
(PID.TID 0000.0001) %MON dynstat_vvel_min             =  -2.4579442383656E-01
(PID.TID 0000.0001) %MON dynstat_vvel_mean            =  -2.5339883620375E-06
(PID.TID 0000.0001) %MON dynstat_vvel_sd              =   1.1773738306369E-02
(PID.TID 0000.0001) %MON dynstat_vvel_del2            =   2.1928325121592E-04
(PID.TID 0000.0001) %MON dynstat_wvel_max             =   1.9808195060537E-04
(PID.TID 0000.0001) %MON dynstat_wvel_min             =  -2.5303929421980E-04
(PID.TID 0000.0001) %MON dynstat_wvel_mean            =  -9.9984524994202E-23
(PID.TID 0000.0001) %MON dynstat_wvel_sd              =   9.9920299912263E-06
(PID.TID 0000.0001) %MON dynstat_wvel_del2            =   3.1424345457872E-07
(PID.TID 0000.0001) %MON dynstat_theta_max            =   2.6933598491119E+01
(PID.TID 0000.0001) %MON dynstat_theta_min            =   9.9120177927606E-01
(PID.TID 0000.0001) %MON dynstat_theta_mean           =   4.0137217876310E+00
(PID.TID 0000.0001) %MON dynstat_theta_sd             =   4.4519194306298E+00
(PID.TID 0000.0001) %MON dynstat_theta_del2           =   2.2558366668488E-03
(PID.TID 0000.0001) %MON dynstat_salt_max             =   3.4500000000009E+01
(PID.TID 0000.0001) %MON dynstat_salt_min             =   3.4499999999980E+01
(PID.TID 0000.0001) %MON dynstat_salt_mean            =   3.4499999999998E+01
(PID.TID 0000.0001) %MON dynstat_salt_sd              =   2.3448865756986E-12
(PID.TID 0000.0001) %MON dynstat_salt_del2            =   1.5314193804777E-14
(PID.TID 0000.0001) %MON trAdv_CFL_u_max              =   1.0382841257073E-02
(PID.TID 0000.0001) %MON trAdv_CFL_v_max              =   4.1006292378187E-03
(PID.TID 0000.0001) %MON trAdv_CFL_w_max              =   2.0302693318835E-02
(PID.TID 0000.0001) %MON advcfl_uvel_max              =   1.0382709474478E-02
(PID.TID 0000.0001) %MON advcfl_vvel_max              =   4.1106819026386E-03
(PID.TID 0000.0001) %MON advcfl_wvel_max              =   1.9044424397848E-02
(PID.TID 0000.0001) %MON advcfl_W_hf_max              =   2.0302693318835E-02
(PID.TID 0000.0001) %MON pe_b_mean                    =   1.8115787615168E-05
(PID.TID 0000.0001) %MON ke_max                       =   1.0349668286103E-01
(PID.TID 0000.0001) %MON ke_mean                      =   1.2683149378941E-04
(PID.TID 0000.0001) %MON ke_vol                       =   7.5744557036543E+16
(PID.TID 0000.0001) %MON vort_r_min                   =  -8.6718968849803E-06
(PID.TID 0000.0001) %MON vort_r_max                   =   9.9636948857571E-06
(PID.TID 0000.0001) %MON vort_a_mean                  =   9.3555569952477E-05
(PID.TID 0000.0001) %MON vort_a_sd                    =   2.5195094525082E-05
(PID.TID 0000.0001) %MON vort_p_mean                  =   9.7478626213492E-05
(PID.TID 0000.0001) %MON vort_p_sd                    =   3.9501092014910E-05
(PID.TID 0000.0001) %MON surfExpan_theta_mean         =   1.9067658339399E-08
(PID.TID 0000.0001) %MON surfExpan_salt_mean          =  -2.3193536431031E-22
(PID.TID 0000.0001) // =======================================================
(PID.TID 0000.0001) // End MONITOR dynamic field statistics
(PID.TID 0000.0001) // =======================================================
(PID.TID 0000.0001) %CHECKPOINT     12960 ckptB
 cg2d: Sum(rhs),rhsMax =  -4.41313652288500E-14  4.50376710320670E-01
 cg2d: Sum(rhs),rhsMax =  -2.59223198462166E-13  4.50364185927648E-01
 cg2d: Sum(rhs),rhsMax =   1.51087475863676E-13  4.50351729268933E-01
 cg2d: Sum(rhs),rhsMax =  -1.63064006741820E-14  4.50339110807386E-01
 cg2d: Sum(rhs),rhsMax =   1.00919272938427E-13  4.50326140289565E-01
 cg2d: Sum(rhs),rhsMax =   7.17897963298242E-14  4.50312616568401E-01
 cg2d: Sum(rhs),rhsMax =  -1.10536579889242E-13  4.50298372130810E-01
 cg2d: Sum(rhs),rhsMax =   1.67338365386627E-13  4.50283256734232E-01
 cg2d: Sum(rhs),rhsMax =  -5.82422998718357E-13  4.50267138410351E-01
 cg2d: Sum(rhs),rhsMax =   1.82978632246034E-13  4.50249928601266E-01
 cg2d: Sum(rhs),rhsMax =   3.45168338355961E-13  4.50231526507201E-01
 cg2d: Sum(rhs),rhsMax =   1.76872405610595E-13  4.50211896999668E-01
 cg2d: Sum(rhs),rhsMax =  -5.40165134843562E-13  4.50191008094237E-01
 cg2d: Sum(rhs),rhsMax =   4.00096622499291E-14  4.50168868174859E-01
 cg2d: Sum(rhs),rhsMax =  -5.03111441396698E-13  4.50145498889635E-01
 cg2d: Sum(rhs),rhsMax =   2.42167397246362E-14  4.50121115969901E-01
 cg2d: Sum(rhs),rhsMax =   3.50636186752240E-13  4.50095808898216E-01
 cg2d: Sum(rhs),rhsMax =  -3.05797054345192E-13  4.50069641221419E-01
 cg2d: Sum(rhs),rhsMax =   2.20545803841787E-13  4.50042689550287E-01
 cg2d: Sum(rhs),rhsMax =  -7.05546732149287E-14  4.50015025862737E-01
 cg2d: Sum(rhs),rhsMax =   4.51777504295592E-13  4.49986740156984E-01
 cg2d: Sum(rhs),rhsMax =   1.28660970766248E-13  4.49957915262800E-01
 cg2d: Sum(rhs),rhsMax =  -1.59414148548365E-13  4.49928565715986E-01
 cg2d: Sum(rhs),rhsMax =   9.88931159184858E-14  4.49898832753654E-01
 cg2d: Sum(rhs),rhsMax =   3.52023965533022E-13  4.49868784702540E-01
 cg2d: Sum(rhs),rhsMax =   4.49140724612107E-13  4.49838479520217E-01
 cg2d: Sum(rhs),rhsMax =   5.68128877276308E-13  4.49807967338953E-01
 cg2d: Sum(rhs),rhsMax =  -7.88119569605783E-14  4.49777278469218E-01
 cg2d: Sum(rhs),rhsMax =  -7.90340015655033E-14  4.49746432500400E-01
 cg2d: Sum(rhs),rhsMax =  -1.72459269087710E-13  4.49715451050960E-01
 cg2d: Sum(rhs),rhsMax =   2.95041768794135E-14  4.49684266472674E-01
 cg2d: Sum(rhs),rhsMax =  -4.83640905102334E-14  4.49652911080597E-01
 cg2d: Sum(rhs),rhsMax =  -1.18141607607924E-13  4.49621364960740E-01
 cg2d: Sum(rhs),rhsMax =   3.39395178627910E-13  4.49589578311822E-01
 cg2d: Sum(rhs),rhsMax =   1.11327613794288E-13  4.49557703901766E-01
 cg2d: Sum(rhs),rhsMax =  -5.79536418854332E-14  4.49525683614514E-01
 cg2d: Sum(rhs),rhsMax =  -2.73198130784635E-13  4.49493463878363E-01
 cg2d: Sum(rhs),rhsMax =   1.67310609811011E-13  4.49460988131861E-01
 cg2d: Sum(rhs),rhsMax =   1.02029495963052E-13  4.49428199890396E-01
 cg2d: Sum(rhs),rhsMax =   1.05096487068579E-13  4.49395028082656E-01
 cg2d: Sum(rhs),rhsMax =  -2.81163980986321E-14  4.49361424476925E-01
 cg2d: Sum(rhs),rhsMax =   3.63348240384198E-13  4.49327340127417E-01
 cg2d: Sum(rhs),rhsMax =   3.16288661927899E-13  4.49292731270566E-01
 cg2d: Sum(rhs),rhsMax =   3.04409275564410E-13  4.49257564275433E-01
 cg2d: Sum(rhs),rhsMax =   2.09582351473614E-13  4.49221826292605E-01
 cg2d: Sum(rhs),rhsMax =  -3.81777942592976E-14  4.49185502082039E-01
 cg2d: Sum(rhs),rhsMax =  -4.02317068548541E-14  4.49148598027869E-01
 cg2d: Sum(rhs),rhsMax =  -4.78089789979208E-14  4.49111132233840E-01
 cg2d: Sum(rhs),rhsMax =   5.01404473496336E-13  4.49073135761428E-01
 cg2d: Sum(rhs),rhsMax =  -1.87197479739609E-13  4.49034647939955E-01
 cg2d: Sum(rhs),rhsMax =   7.31775751106056E-14  4.48995729838002E-01
 cg2d: Sum(rhs),rhsMax =  -3.59295926344316E-14  4.48956436629615E-01
 cg2d: Sum(rhs),rhsMax =  -1.61218260963381E-13  4.48916867012712E-01
 cg2d: Sum(rhs),rhsMax =   1.84435799965854E-13  4.48877269101078E-01
 cg2d: Sum(rhs),rhsMax =  -4.11115586018695E-13  4.48837722346709E-01
 cg2d: Sum(rhs),rhsMax =  -4.47530901226401E-13  4.48798295010113E-01
 cg2d: Sum(rhs),rhsMax =  -1.96190286239073E-13  4.48759051474181E-01
 cg2d: Sum(rhs),rhsMax =  -7.60086438233998E-14  4.48720052538024E-01
 cg2d: Sum(rhs),rhsMax =   1.04985464766116E-13  4.48681344813983E-01
 cg2d: Sum(rhs),rhsMax =  -1.17739151761498E-13  4.48642964595048E-01
 cg2d: Sum(rhs),rhsMax =   2.45803377652010E-13  4.48604937399330E-01
 cg2d: Sum(rhs),rhsMax =  -8.07964806170958E-14  4.48567257054964E-01
 cg2d: Sum(rhs),rhsMax =  -2.70755640130460E-14  4.48529956833498E-01
 cg2d: Sum(rhs),rhsMax =   3.04825609198645E-13  4.48492992478233E-01
 cg2d: Sum(rhs),rhsMax =  -4.95714580495132E-14  4.48456333658346E-01
 cg2d: Sum(rhs),rhsMax =  -1.20140009052250E-13  4.48419933891961E-01
 cg2d: Sum(rhs),rhsMax =  -5.08024178280664E-13  4.48383725806444E-01
 cg2d: Sum(rhs),rhsMax =   6.32841001824147E-13  4.48347638273628E-01
 cg2d: Sum(rhs),rhsMax =  -1.55570001325600E-14  4.48311593626422E-01
 cg2d: Sum(rhs),rhsMax =   6.01740879346835E-14  4.48275498190046E-01
 cg2d: Sum(rhs),rhsMax =   2.61415888935801E-13  4.48239253829140E-01
 cg2d: Sum(rhs),rhsMax =   2.76029199497430E-13  4.48202764520071E-01
 cg2d: Sum(rhs),rhsMax =   1.96190286239073E-13  4.48165933268148E-01
 cg2d: Sum(rhs),rhsMax =  -9.87543380404077E-14  4.48128657424866E-01
 cg2d: Sum(rhs),rhsMax =   7.39686090156511E-14  4.48090965680045E-01
 cg2d: Sum(rhs),rhsMax =   3.20007909060394E-13  4.48052726471832E-01
 cg2d: Sum(rhs),rhsMax =   1.40318312524812E-13  4.48013839159266E-01
 cg2d: Sum(rhs),rhsMax =  -9.72555369571637E-14  4.47974221433031E-01
 cg2d: Sum(rhs),rhsMax =   3.08877923238526E-13  4.47933799226899E-01
 cg2d: Sum(rhs),rhsMax =  -2.26735297204073E-13  4.47892514688188E-01
 cg2d: Sum(rhs),rhsMax =  -3.46750406166052E-13  4.47850325633099E-01
 cg2d: Sum(rhs),rhsMax =  -4.77395900588817E-13  4.47807207136942E-01
 cg2d: Sum(rhs),rhsMax =   3.66165431309184E-13  4.47763148594425E-01
 cg2d: Sum(rhs),rhsMax =  -2.58362775618082E-13  4.47718167096113E-01
 cg2d: Sum(rhs),rhsMax =  -3.88800103223730E-13  4.47671237525617E-01
 cg2d: Sum(rhs),rhsMax =  -2.48828735394113E-13  4.47623461854058E-01
 cg2d: Sum(rhs),rhsMax =  -2.75057754350883E-14  4.47574904302201E-01
 cg2d: Sum(rhs),rhsMax =   1.50823797895328E-13  4.47525648227268E-01
 cg2d: Sum(rhs),rhsMax =   1.82007187099487E-13  4.47475814853187E-01
 cg2d: Sum(rhs),rhsMax =  -4.22259449628370E-13  4.47425620177332E-01
 cg2d: Sum(rhs),rhsMax =  -1.88529747369159E-13  4.47375242663675E-01
 cg2d: Sum(rhs),rhsMax =   7.10459469033253E-13  4.47324798634710E-01
 cg2d: Sum(rhs),rhsMax =  -1.16295861829485E-14  4.47274370901810E-01
 cg2d: Sum(rhs),rhsMax =  -5.07482944556159E-13  4.47224094317957E-01
 cg2d: Sum(rhs),rhsMax =  -5.23026066900911E-13  4.47174084372341E-01
 cg2d: Sum(rhs),rhsMax =   4.44644321362375E-13  4.47124435890831E-01
 cg2d: Sum(rhs),rhsMax =  -1.98174809895590E-14  4.47111300964627E-01
 cg2d: Sum(rhs),rhsMax =   1.67921232474555E-14  4.47543702434078E-01
 cg2d: Sum(rhs),rhsMax =  -1.77011183488673E-13  4.47972781974658E-01
 cg2d: Sum(rhs),rhsMax =  -8.32944824225024E-14  4.48398898257063E-01
 cg2d: Sum(rhs),rhsMax =   1.51587076224757E-13  4.48822500881817E-01
 cg2d: Sum(rhs),rhsMax =  -1.10633724403897E-13  4.49244073721540E-01
 cg2d: Sum(rhs),rhsMax =  -4.11101708230888E-13  4.49664146949293E-01
 cg2d: Sum(rhs),rhsMax =   2.40779618465581E-14  4.50083275548250E-01
 cg2d: Sum(rhs),rhsMax =  -4.31071844886333E-13  4.50502039651119E-01
 cg2d: Sum(rhs),rhsMax =   1.58206781009085E-14  4.50921021980596E-01
 cg2d: Sum(rhs),rhsMax =   2.63719601711898E-13  4.51340771510683E-01
 cg2d: Sum(rhs),rhsMax =   2.39114283928643E-13  4.51761836123015E-01
 cg2d: Sum(rhs),rhsMax =  -7.25114412958305E-14  4.52184714269056E-01
 cg2d: Sum(rhs),rhsMax =   4.34929869896905E-14  4.52609872023573E-01
 cg2d: Sum(rhs),rhsMax =  -5.05540054263065E-13  4.53037649739932E-01
 cg2d: Sum(rhs),rhsMax =  -6.69603261727048E-14  4.53468192633864E-01
 cg2d: Sum(rhs),rhsMax =   1.89723237120631E-13  4.53901607760721E-01
 cg2d: Sum(rhs),rhsMax =  -6.17422779569665E-14  4.54337959258436E-01
 cg2d: Sum(rhs),rhsMax =   2.36269337428041E-13  4.54777216829536E-01
 cg2d: Sum(rhs),rhsMax =  -2.34437469437410E-13  4.55219283002044E-01
 cg2d: Sum(rhs),rhsMax =  -3.59101637315007E-13  4.55663949234635E-01
 cg2d: Sum(rhs),rhsMax =  -1.65034652610530E-13  4.56110928515388E-01
 cg2d: Sum(rhs),rhsMax =  -6.05251959662212E-13  4.56559856419721E-01
 cg2d: Sum(rhs),rhsMax =   5.10425035571416E-14  4.57010301529057E-01
 cg2d: Sum(rhs),rhsMax =   6.60582699651968E-15  4.57461774256154E-01
 cg2d: Sum(rhs),rhsMax =   6.14785999886180E-14  4.57913752590023E-01
 cg2d: Sum(rhs),rhsMax =  -3.36952687973735E-13  4.58365684293224E-01
 cg2d: Sum(rhs),rhsMax =  -4.73135419731818E-13  4.58817009866092E-01
 cg2d: Sum(rhs),rhsMax =   2.21850315895722E-13  4.59267204348763E-01
 cg2d: Sum(rhs),rhsMax =  -5.65381075290361E-14  4.59715741620755E-01
 cg2d: Sum(rhs),rhsMax =   2.14314677116079E-13  4.60162146667264E-01
 cg2d: Sum(rhs),rhsMax =  -2.51604292955676E-14  4.60605989433003E-01
 cg2d: Sum(rhs),rhsMax =   3.83054699071295E-13  4.61046890723586E-01
 cg2d: Sum(rhs),rhsMax =  -1.81410442223751E-13  4.61484518421652E-01
 cg2d: Sum(rhs),rhsMax =   3.86662923901326E-13  4.61918675361925E-01
 cg2d: Sum(rhs),rhsMax =   6.82509604388315E-14  4.62349205488181E-01
 cg2d: Sum(rhs),rhsMax =   3.71161434919998E-13  4.62776060858583E-01
 cg2d: Sum(rhs),rhsMax =  -1.30395694242225E-13  4.63199260075787E-01
 cg2d: Sum(rhs),rhsMax =   8.26283486077273E-14  4.63618932961296E-01
 cg2d: Sum(rhs),rhsMax =   7.37881977741495E-14  4.64035402092133E-01
 cg2d: Sum(rhs),rhsMax =   3.15816817142434E-13  4.64448787243013E-01
 cg2d: Sum(rhs),rhsMax =   1.35544353518924E-13  4.64859415722468E-01
 cg2d: Sum(rhs),rhsMax =   2.94347879403745E-13  4.65267665901333E-01
 cg2d: Sum(rhs),rhsMax =  -4.01984001641154E-13  4.65673947925753E-01
 cg2d: Sum(rhs),rhsMax =   5.49393863735759E-13  4.66078830043929E-01
 cg2d: Sum(rhs),rhsMax =  -3.01425551185730E-13  4.66482601233631E-01
 cg2d: Sum(rhs),rhsMax =   1.01488262238547E-13  4.66885930762778E-01
 cg2d: Sum(rhs),rhsMax =  -1.52100554373646E-14  4.67289325049171E-01
 cg2d: Sum(rhs),rhsMax =  -2.65912292185533E-13  4.67693209116357E-01
 cg2d: Sum(rhs),rhsMax =   1.65284452791070E-14  4.68098021500087E-01
 cg2d: Sum(rhs),rhsMax =  -1.74429914956420E-13  4.68504178438632E-01
 cg2d: Sum(rhs),rhsMax =  -1.48075995909380E-13  4.68912193581875E-01
 cg2d: Sum(rhs),rhsMax =  -9.73388036840106E-14  4.69322335146664E-01
 cg2d: Sum(rhs),rhsMax =  -5.73291414340815E-14  4.69734901842260E-01
 cg2d: Sum(rhs),rhsMax =  -2.31759056390501E-15  4.70124220046017E-01
 cg2d: Sum(rhs),rhsMax =   1.69433911345607E-13  4.70515837423187E-01
 cg2d: Sum(rhs),rhsMax =  -1.31589183993697E-13  4.70910588158600E-01
 cg2d: Sum(rhs),rhsMax =   3.06296654706273E-13  4.71308311067259E-01
 cg2d: Sum(rhs),rhsMax =   2.73947531326257E-13  4.71709169534991E-01
 cg2d: Sum(rhs),rhsMax =   1.46133105616286E-13  4.72113117943979E-01
 cg2d: Sum(rhs),rhsMax =  -2.49064657786846E-13  4.72519982826705E-01
 cg2d: Sum(rhs),rhsMax =   8.01719801657441E-14  4.72929573800449E-01
 cg2d: Sum(rhs),rhsMax =   3.04478664503449E-14  4.73341591910671E-01
 cg2d: Sum(rhs),rhsMax =  -2.99552049831675E-13  4.73755703656891E-01
 cg2d: Sum(rhs),rhsMax =   3.23532867163578E-13  4.74171532998344E-01
 cg2d: Sum(rhs),rhsMax =  -2.86562440443561E-13  4.74588658064873E-01
 cg2d: Sum(rhs),rhsMax =  -7.70772334846015E-14  4.75006621678005E-01
 cg2d: Sum(rhs),rhsMax =   1.94941285336370E-13  4.75424961995087E-01
 cg2d: Sum(rhs),rhsMax =  -6.02851102371460E-14  4.75843226587520E-01
 cg2d: Sum(rhs),rhsMax =   2.81552559044940E-13  4.76260971733603E-01
 cg2d: Sum(rhs),rhsMax =   9.86155601623295E-14  4.76677795547193E-01
 cg2d: Sum(rhs),rhsMax =   3.24185123190546E-14  4.77093325931409E-01
 cg2d: Sum(rhs),rhsMax =  -1.96093141724418E-14  4.77507368141868E-01
 cg2d: Sum(rhs),rhsMax =  -1.12368447879874E-13  4.77919669286934E-01
 cg2d: Sum(rhs),rhsMax =  -8.99974539336768E-14  4.78330069425245E-01
 cg2d: Sum(rhs),rhsMax =  -1.44814715774544E-13  4.78738426443360E-01
 cg2d: Sum(rhs),rhsMax =   3.63598040564739E-14  4.79144769939643E-01
 cg2d: Sum(rhs),rhsMax =   7.35203564694586E-13  4.79549264368183E-01
 cg2d: Sum(rhs),rhsMax =  -8.35442826030430E-15  4.79951984055535E-01
 cg2d: Sum(rhs),rhsMax =   1.63591362678517E-13  4.80353024509527E-01
 cg2d: Sum(rhs),rhsMax =   3.23532867163578E-13  4.80752557346259E-01
 cg2d: Sum(rhs),rhsMax =  -3.05450109649996E-14  4.81150781508415E-01
 cg2d: Sum(rhs),rhsMax =  -1.07261421966598E-13  4.81547935912284E-01
 cg2d: Sum(rhs),rhsMax =   2.04003480774873E-14  4.81944269548550E-01
 cg2d: Sum(rhs),rhsMax =   4.66571226098722E-14  4.82340057115558E-01
 cg2d: Sum(rhs),rhsMax =   1.56971657894189E-13  4.82735604308892E-01
 cg2d: Sum(rhs),rhsMax =   1.77080572427712E-14  4.83131425891228E-01
 cg2d: Sum(rhs),rhsMax =  -1.02973185533983E-13  4.83527445938492E-01
 cg2d: Sum(rhs),rhsMax =   1.94691485155829E-13  4.83924060492404E-01
 cg2d: Sum(rhs),rhsMax =   9.88514825550624E-14  4.84321511202030E-01
 cg2d: Sum(rhs),rhsMax =  -7.81180675701876E-14  4.84720005664703E-01
 cg2d: Sum(rhs),rhsMax =  -1.79634085384350E-13  4.85119704790893E-01
 cg2d: Sum(rhs),rhsMax =  -2.42597608668405E-13  4.85520715316514E-01
 cg2d: Sum(rhs),rhsMax =  -2.05127581587305E-13  4.85923081221455E-01
 cg2d: Sum(rhs),rhsMax =  -9.42856903662914E-14  4.86326792746393E-01
 cg2d: Sum(rhs),rhsMax =  -2.29802288309600E-13  4.86731781546641E-01
 cg2d: Sum(rhs),rhsMax =  -2.90698021210289E-13  4.87137914114742E-01
 cg2d: Sum(rhs),rhsMax =  -4.57273108267486E-14  4.87544951116737E-01
 cg2d: Sum(rhs),rhsMax =  -6.49924558615567E-13  4.87953053277475E-01
 cg2d: Sum(rhs),rhsMax =   1.52655665885959E-14  4.88361765034663E-01
 cg2d: Sum(rhs),rhsMax =  -8.50153281106714E-14  4.88770810991020E-01
 cg2d: Sum(rhs),rhsMax =  -1.14061537992427E-13  4.89179833233818E-01
 cg2d: Sum(rhs),rhsMax =   2.97220581479962E-13  4.89589110735415E-01
 cg2d: Sum(rhs),rhsMax =  -2.02476924116013E-14  4.89996144019742E-01
 cg2d: Sum(rhs),rhsMax =   4.34194347143091E-13  4.90403669841970E-01
 cg2d: Sum(rhs),rhsMax =  -3.67456065575311E-13  4.90808536746552E-01
 cg2d: Sum(rhs),rhsMax =  -5.11632403110696E-13  4.91211458013133E-01
 cg2d: Sum(rhs),rhsMax =   4.48530101948563E-14  4.91613506677464E-01
 cg2d: Sum(rhs),rhsMax =   4.15042999968307E-13  4.92011560074449E-01
 cg2d: Sum(rhs),rhsMax =  -9.17460551974614E-14  4.92407388799272E-01
 cg2d: Sum(rhs),rhsMax =  -5.89805981832114E-14  4.92800278947614E-01
 cg2d: Sum(rhs),rhsMax =   2.06459849216856E-13  4.93190233029607E-01
 cg2d: Sum(rhs),rhsMax =  -9.23983112244287E-14  4.93577551738681E-01
 cg2d: Sum(rhs),rhsMax =   2.15480411291935E-13  4.93962158273748E-01
 cg2d: Sum(rhs),rhsMax =   2.86271006899597E-13  4.94344089620987E-01
 cg2d: Sum(rhs),rhsMax =   3.19647086577390E-13  4.94723367076246E-01
 cg2d: Sum(rhs),rhsMax =   4.00929289767760E-13  4.95100053940025E-01
 cg2d: Sum(rhs),rhsMax =  -4.49779102851267E-14  4.95474588980702E-01
 cg2d: Sum(rhs),rhsMax =  -1.41789358032440E-13  4.95847209176929E-01
 cg2d: Sum(rhs),rhsMax =  -1.50351953109862E-13  4.96218224662084E-01
 cg2d: Sum(rhs),rhsMax =  -7.79099007530704E-14  4.96587943934468E-01
 cg2d: Sum(rhs),rhsMax =  -4.51597093054090E-13  4.96956703849928E-01
 cg2d: Sum(rhs),rhsMax =  -4.28837521049275E-13  4.97324910581087E-01
 cg2d: Sum(rhs),rhsMax =   6.27137231035135E-14  4.97692850671339E-01
 cg2d: Sum(rhs),rhsMax =  -8.19899703685678E-14  4.98060863519655E-01
 cg2d: Sum(rhs),rhsMax =  -3.37369021607969E-13  4.98429279048739E-01
 cg2d: Sum(rhs),rhsMax =   2.78346790061335E-13  4.98808045653217E-01
 cg2d: Sum(rhs),rhsMax =  -3.72202269005584E-14  4.99187660773670E-01
 cg2d: Sum(rhs),rhsMax =   1.93317584162855E-13  4.99568228609832E-01
 cg2d: Sum(rhs),rhsMax =   4.19664303308309E-14  4.99949964483999E-01
 cg2d: Sum(rhs),rhsMax =  -3.48929218851879E-13  5.00332846332408E-01
 cg2d: Sum(rhs),rhsMax =   1.34961486430996E-13  5.00716953642650E-01
 cg2d: Sum(rhs),rhsMax =  -6.98052726733067E-15  5.01102259655781E-01
 cg2d: Sum(rhs),rhsMax =   2.38378761174829E-13  5.01488622510510E-01
 cg2d: Sum(rhs),rhsMax =   1.69544933648069E-13  5.01875916081750E-01
 cg2d: Sum(rhs),rhsMax =   1.63077884529628E-13  5.02263944020774E-01
 cg2d: Sum(rhs),rhsMax =   8.40022496007009E-14  5.02652438418560E-01
 cg2d: Sum(rhs),rhsMax =  -3.99610899926017E-13  5.03041073363276E-01
 cg2d: Sum(rhs),rhsMax =  -2.92182944505726E-13  5.03429545867812E-01
 cg2d: Sum(rhs),rhsMax =   2.74349987172684E-13  5.03817489385398E-01
 cg2d: Sum(rhs),rhsMax =  -1.32366340110934E-13  5.04204535012349E-01
 cg2d: Sum(rhs),rhsMax =   5.70946068201295E-13  5.04590316664248E-01
 cg2d: Sum(rhs),rhsMax =   5.13200593132979E-14  5.04974619382772E-01
 cg2d: Sum(rhs),rhsMax =  -9.64506252643105E-15  5.05357164711912E-01
 cg2d: Sum(rhs),rhsMax =   2.76861866765898E-14  5.05737572488002E-01
 cg2d: Sum(rhs),rhsMax =  -3.96974120242533E-13  5.06115484661885E-01
 cg2d: Sum(rhs),rhsMax =   1.03542174834104E-13  5.06490676392074E-01
 cg2d: Sum(rhs),rhsMax =   1.31533672842465E-13  5.06862935913889E-01
 cg2d: Sum(rhs),rhsMax =  -2.00436889308264E-13  5.07232062926228E-01
 cg2d: Sum(rhs),rhsMax =  -3.46153661290316E-13  5.07597892117568E-01
 cg2d: Sum(rhs),rhsMax =   3.82402443044327E-13  5.07960367769368E-01
 cg2d: Sum(rhs),rhsMax =   1.61717861324462E-13  5.08319442878570E-01
 cg2d: Sum(rhs),rhsMax =  -4.53387327681298E-13  5.08675246869766E-01
 cg2d: Sum(rhs),rhsMax =  -9.45493683346399E-14  5.09027838583519E-01
 cg2d: Sum(rhs),rhsMax =  -1.82895365519187E-13  5.09377476890446E-01
 cg2d: Sum(rhs),rhsMax =  -3.76684794467508E-13  5.09724564823722E-01
 cg2d: Sum(rhs),rhsMax =  -3.52634588196565E-14  5.10070956058329E-01
 cg2d: Sum(rhs),rhsMax =  -1.96620497661115E-13  5.10415667309833E-01
 cg2d: Sum(rhs),rhsMax =   4.55788184972050E-13  5.10759073121035E-01
 cg2d: Sum(rhs),rhsMax =  -2.57682764015499E-13  5.11101607987529E-01
 cg2d: Sum(rhs),rhsMax =   3.62945784537771E-13  5.11443698456088E-01
 cg2d: Sum(rhs),rhsMax =   4.26048085699904E-14  5.11785785365290E-01
 cg2d: Sum(rhs),rhsMax =  -4.62782590027189E-13  5.12128302402858E-01
 cg2d: Sum(rhs),rhsMax =  -5.95856697316322E-13  5.12471713481198E-01
 cg2d: Sum(rhs),rhsMax =   5.69683189510783E-14  5.12816234472640E-01
 cg2d: Sum(rhs),rhsMax =  -1.68448588411252E-13  5.13162494983418E-01
 cg2d: Sum(rhs),rhsMax =  -8.52928838668277E-14  5.13510856503144E-01
 cg2d: Sum(rhs),rhsMax =   1.89723237120631E-13  5.13861560387231E-01
 cg2d: Sum(rhs),rhsMax =  -1.87280746466456E-13  5.14214597725208E-01
 cg2d: Sum(rhs),rhsMax =   3.80223630358500E-13  5.14570341000771E-01
 cg2d: Sum(rhs),rhsMax =  -8.74994521282701E-14  5.14928940130644E-01
 cg2d: Sum(rhs),rhsMax =  -2.48218112730569E-13  5.15290475283609E-01
 cg2d: Sum(rhs),rhsMax =  -9.65477697789652E-14  5.15654912250041E-01
 cg2d: Sum(rhs),rhsMax =   2.23793206188816E-13  5.16022176617966E-01
 cg2d: Sum(rhs),rhsMax =  -1.28078103678320E-13  5.16392074352546E-01
 cg2d: Sum(rhs),rhsMax =  -2.25375273998907E-14  5.16764343042376E-01
 cg2d: Sum(rhs),rhsMax =  -7.58282325818982E-14  5.17137510924469E-01
 cg2d: Sum(rhs),rhsMax =  -1.85851334322251E-13  5.17493503796984E-01
 cg2d: Sum(rhs),rhsMax =  -1.88724036398469E-13  5.17850523142316E-01
 cg2d: Sum(rhs),rhsMax =   1.67088565206086E-14  5.18208624441714E-01
 cg2d: Sum(rhs),rhsMax =   4.19664303308309E-14  5.18566938527363E-01
 cg2d: Sum(rhs),rhsMax =   1.49644185931663E-13  5.18925008224942E-01
 cg2d: Sum(rhs),rhsMax =   1.04777297948999E-14  5.19282215766035E-01
 cg2d: Sum(rhs),rhsMax =  -1.79425918567233E-13  5.19637810751034E-01
 cg2d: Sum(rhs),rhsMax =   5.73152636462737E-14  5.19991110285629E-01
 cg2d: Sum(rhs),rhsMax =   2.74030798053104E-13  5.20341675108269E-01
 cg2d: Sum(rhs),rhsMax =   2.17728612916801E-13  5.20689202115747E-01
 cg2d: Sum(rhs),rhsMax =  -4.94604357470507E-14  5.21033684620441E-01
 cg2d: Sum(rhs),rhsMax =   3.14623327390962E-13  5.21374894991407E-01
 cg2d: Sum(rhs),rhsMax =  -3.81319975595318E-13  5.21712729304965E-01
 cg2d: Sum(rhs),rhsMax =   9.74775815620887E-14  5.22047184449413E-01
 cg2d: Sum(rhs),rhsMax =   3.13776782334685E-13  5.22377699044327E-01
 cg2d: Sum(rhs),rhsMax =  -1.79856129989275E-13  5.22704936872105E-01
 cg2d: Sum(rhs),rhsMax =  -5.53765366895220E-13  5.23029000550468E-01
 cg2d: Sum(rhs),rhsMax =  -9.00252095092924E-14  5.23364959427845E-01
 cg2d: Sum(rhs),rhsMax =   2.25375273998907E-13  5.23698605189956E-01
 cg2d: Sum(rhs),rhsMax =  -2.97720181841044E-13  5.24029684768957E-01
 cg2d: Sum(rhs),rhsMax =   1.97730720685740E-13  5.24358740504084E-01
 cg2d: Sum(rhs),rhsMax =   7.55506768257419E-14  5.24686089206956E-01
 cg2d: Sum(rhs),rhsMax =  -1.42899581057065E-13  5.25012172805533E-01
 cg2d: Sum(rhs),rhsMax =   1.78856929267113E-13  5.25337401698090E-01
 cg2d: Sum(rhs),rhsMax =  -3.19202997367540E-13  5.25662220042306E-01
 cg2d: Sum(rhs),rhsMax =  -2.87408985499837E-14  5.25987093153256E-01
 cg2d: Sum(rhs),rhsMax =   1.65770175364344E-13  5.26312001133975E-01
 cg2d: Sum(rhs),rhsMax =   6.49480469405717E-15  5.26637728029080E-01
 cg2d: Sum(rhs),rhsMax =  -9.67143032326589E-14  5.26964730036734E-01
 cg2d: Sum(rhs),rhsMax =  -3.14887005359310E-14  5.27293344105893E-01
 cg2d: Sum(rhs),rhsMax =   1.78010384210836E-13  5.27623856203996E-01
 cg2d: Sum(rhs),rhsMax =   2.84494650060196E-14  5.27956474133866E-01
 cg2d: Sum(rhs),rhsMax =  -1.01391117723892E-13  5.28291367413282E-01
 cg2d: Sum(rhs),rhsMax =  -4.65599780952175E-14  5.28628582927255E-01
 cg2d: Sum(rhs),rhsMax =  -3.55923623907017E-13  5.28968253876623E-01
 cg2d: Sum(rhs),rhsMax =   1.99631977615411E-13  5.29309934251931E-01
 cg2d: Sum(rhs),rhsMax =  -2.74974487624036E-13  5.29653794486804E-01
 cg2d: Sum(rhs),rhsMax =  -1.91180404840452E-13  5.29999566450598E-01
 cg2d: Sum(rhs),rhsMax =  -2.49800180540660E-14  5.30347093106810E-01
 cg2d: Sum(rhs),rhsMax =  -7.81319453579954E-14  5.30695303460260E-01
 cg2d: Sum(rhs),rhsMax =  -4.63379334902925E-14  5.31044212320513E-01
 cg2d: Sum(rhs),rhsMax =   1.88793425337508E-13  5.31393516328722E-01
 cg2d: Sum(rhs),rhsMax =  -2.41015540858314E-13  5.31742762742163E-01
 cg2d: Sum(rhs),rhsMax =  -4.72677452734160E-14  5.32091513165924E-01
 cg2d: Sum(rhs),rhsMax =   1.94552707277751E-13  5.32439309709629E-01
 cg2d: Sum(rhs),rhsMax =   1.42511002998447E-13  5.32785562580084E-01
 cg2d: Sum(rhs),rhsMax =   5.81479309147426E-14  5.33129814021074E-01
 cg2d: Sum(rhs),rhsMax =  -4.01068067645838E-15  5.33471577657670E-01
 cg2d: Sum(rhs),rhsMax =   5.90499871222505E-14  5.33810434401515E-01
 cg2d: Sum(rhs),rhsMax =  -4.60603777341362E-14  5.34146020169205E-01
 cg2d: Sum(rhs),rhsMax =  -1.15102372078013E-13  5.34478031239936E-01
 cg2d: Sum(rhs),rhsMax =  -1.17059140158915E-13  5.34806118952303E-01
 cg2d: Sum(rhs),rhsMax =  -8.25450818808804E-14  5.35130265193724E-01
 cg2d: Sum(rhs),rhsMax =  -3.39200889598601E-13  5.35450409372352E-01
 cg2d: Sum(rhs),rhsMax =  -2.42861286636753E-15  5.35766539764780E-01
 cg2d: Sum(rhs),rhsMax =   1.14873388579184E-13  5.36078740207056E-01
 cg2d: Sum(rhs),rhsMax =  -4.38746261544054E-14  5.36387199880514E-01
 cg2d: Sum(rhs),rhsMax =  -6.21031004399697E-14  5.36692049363613E-01
 cg2d: Sum(rhs),rhsMax =  -2.77722289609983E-13  5.36993491748290E-01
 cg2d: Sum(rhs),rhsMax =  -2.03718986124812E-13  5.37291746531788E-01
 cg2d: Sum(rhs),rhsMax =   4.15500966965965E-14  5.37587037141800E-01
 cg2d: Sum(rhs),rhsMax =   1.21971877042881E-13  5.37879624028654E-01
 cg2d: Sum(rhs),rhsMax =  -1.90333859784175E-14  5.38169779776794E-01
 cg2d: Sum(rhs),rhsMax =   1.24553145575135E-13  5.38457809800135E-01
 cg2d: Sum(rhs),rhsMax =   1.86739512741951E-13  5.38744051144094E-01
 cg2d: Sum(rhs),rhsMax =   3.20056481317721E-13  5.39028861654578E-01
 cg2d: Sum(rhs),rhsMax =   1.32102662142586E-13  5.39312460015929E-01
 cg2d: Sum(rhs),rhsMax =  -4.28705682065100E-13  5.39595269951178E-01
 cg2d: Sum(rhs),rhsMax =   1.06789577181132E-13  5.39877689926697E-01
 cg2d: Sum(rhs),rhsMax =   2.67452726632200E-13  5.40160094760547E-01
 cg2d: Sum(rhs),rhsMax =   3.30152571947906E-13  5.40442820788229E-01
 cg2d: Sum(rhs),rhsMax =  -2.45303777290928E-13  5.40726154676345E-01
 cg2d: Sum(rhs),rhsMax =  -2.19345375196411E-13  5.41010362824440E-01
 cg2d: Sum(rhs),rhsMax =  -3.29319904679437E-14  5.41295287054808E-01
 cg2d: Sum(rhs),rhsMax =   2.32751318218760E-13  5.41581006757473E-01
 cg2d: Sum(rhs),rhsMax =  -2.01220984319406E-13  5.41867643342072E-01
 cg2d: Sum(rhs),rhsMax =   1.12285181153027E-13  5.42155258145320E-01
 cg2d: Sum(rhs),rhsMax =   1.93109417345738E-14  5.42443864287807E-01
 cg2d: Sum(rhs),rhsMax =  -8.29197821516914E-15  5.42733450225438E-01
 cg2d: Sum(rhs),rhsMax =  -1.61960722611099E-13  5.43023956778189E-01
 cg2d: Sum(rhs),rhsMax =   1.77184655836271E-13  5.43315361893220E-01
 cg2d: Sum(rhs),rhsMax =  -1.47319656473854E-13  5.43607640180562E-01
 cg2d: Sum(rhs),rhsMax =  -1.34253719252797E-13  5.43900408958457E-01
 cg2d: Sum(rhs),rhsMax =  -1.12521103545760E-13  5.44193458021401E-01
 cg2d: Sum(rhs),rhsMax =   1.40602807174872E-13  5.44486569141046E-01
 cg2d: Sum(rhs),rhsMax =   3.75047215506186E-14  5.44779511177204E-01
 cg2d: Sum(rhs),rhsMax =   3.26627613844721E-13  5.45072043000581E-01
 cg2d: Sum(rhs),rhsMax =   1.27467481014776E-14  5.45364213504641E-01
 cg2d: Sum(rhs),rhsMax =  -1.36807232209435E-13  5.45662405944830E-01
 cg2d: Sum(rhs),rhsMax =   1.99562588676372E-14  5.45959144506682E-01
 cg2d: Sum(rhs),rhsMax =  -4.15223411209809E-14  5.46254089421430E-01
 cg2d: Sum(rhs),rhsMax =   2.02365901813550E-13  5.46547299626585E-01
 cg2d: Sum(rhs),rhsMax =   2.65745758731839E-13  5.46838679534490E-01
 cg2d: Sum(rhs),rhsMax =   2.34333386028851E-13  5.47128197115782E-01
 cg2d: Sum(rhs),rhsMax =   3.21520587931445E-13  5.47415905003990E-01
 cg2d: Sum(rhs),rhsMax =  -4.41299774500692E-13  5.47701697179446E-01
 cg2d: Sum(rhs),rhsMax =  -3.07247283171108E-13  5.47985505816040E-01
 cg2d: Sum(rhs),rhsMax =   1.55035706494999E-13  5.48267399015071E-01
 cg2d: Sum(rhs),rhsMax =   5.71140357230604E-14  5.48547487065554E-01
 cg2d: Sum(rhs),rhsMax =   1.72098446604707E-13  5.48825862913555E-01
 cg2d: Sum(rhs),rhsMax =   7.12624403931272E-14  5.49102631804395E-01
 cg2d: Sum(rhs),rhsMax =  -1.50476853200132E-13  5.49377926843211E-01
 cg2d: Sum(rhs),rhsMax =  -1.79557757551407E-13  5.49651872087534E-01
 cg2d: Sum(rhs),rhsMax =  -1.06060993321222E-13  5.49924614204282E-01
 cg2d: Sum(rhs),rhsMax =   1.34059430223488E-14  5.50196257432890E-01
 cg2d: Sum(rhs),rhsMax =   5.19723153402651E-15  5.50466889611012E-01
 cg2d: Sum(rhs),rhsMax =  -1.42524880786254E-14  5.50736639097659E-01
 cg2d: Sum(rhs),rhsMax =  -9.06705266423558E-14  5.51005478943451E-01
 cg2d: Sum(rhs),rhsMax =   5.41372502382842E-14  5.51273506179676E-01
 cg2d: Sum(rhs),rhsMax =   9.47436573639493E-14  5.51540304495077E-01
 cg2d: Sum(rhs),rhsMax =   1.03625441560951E-13  5.51805900422083E-01
 cg2d: Sum(rhs),rhsMax =   3.80799558552525E-13  5.52070219563445E-01
 cg2d: Sum(rhs),rhsMax =  -9.13158437754191E-15  5.52333163092284E-01
 cg2d: Sum(rhs),rhsMax =   2.63393473698414E-13  5.52594749110271E-01
 cg2d: Sum(rhs),rhsMax =  -1.24407428803153E-13  5.52854758276929E-01
 cg2d: Sum(rhs),rhsMax =   3.62869456704829E-13  5.53113188889411E-01
 cg2d: Sum(rhs),rhsMax =  -2.04468386666434E-13  5.53369848002397E-01
 cg2d: Sum(rhs),rhsMax =  -2.16625328786080E-13  5.53624676229743E-01
 cg2d: Sum(rhs),rhsMax =  -1.45161660469739E-13  5.53825037049689E-01
 cg2d: Sum(rhs),rhsMax =   2.47184217538887E-13  5.54020091318304E-01
 cg2d: Sum(rhs),rhsMax =   3.41462969011275E-14  5.54213702380520E-01
 cg2d: Sum(rhs),rhsMax =  -2.11858308674095E-13  5.54405058597978E-01
 cg2d: Sum(rhs),rhsMax =   1.22013510406305E-13  5.54594640018339E-01
 cg2d: Sum(rhs),rhsMax =  -9.45493683346399E-14  5.54782493297492E-01
 cg2d: Sum(rhs),rhsMax =   3.08704450890929E-13  5.54968797334070E-01
 cg2d: Sum(rhs),rhsMax =   2.13766504497670E-13  5.55153641197072E-01
 cg2d: Sum(rhs),rhsMax =   3.81833453744207E-13  5.55337170063859E-01
 cg2d: Sum(rhs),rhsMax =  -2.38066510949153E-13  5.55519542885825E-01
 cg2d: Sum(rhs),rhsMax =   3.33739980096226E-13  5.55700636828997E-01
 cg2d: Sum(rhs),rhsMax =  -5.51017564909273E-14  5.55880503045900E-01
 cg2d: Sum(rhs),rhsMax =   1.65222002745935E-13  5.56059273265829E-01
 cg2d: Sum(rhs),rhsMax =   4.22620272111374E-13  5.56237020760411E-01
 cg2d: Sum(rhs),rhsMax =   5.75442471451026E-14  5.56413613245523E-01
 cg2d: Sum(rhs),rhsMax =   1.66831826131641E-13  5.56590101855646E-01
 cg2d: Sum(rhs),rhsMax =  -1.68129399291672E-13  5.56765895456221E-01
 cg2d: Sum(rhs),rhsMax =  -1.42955092208297E-13  5.56942077933612E-01
 cg2d: Sum(rhs),rhsMax =   1.14075415780235E-14  5.57118377199385E-01
 cg2d: Sum(rhs),rhsMax =   1.06858966120171E-13  5.57294737201106E-01
 cg2d: Sum(rhs),rhsMax =   1.37806432931598E-13  5.57471854952534E-01
 cg2d: Sum(rhs),rhsMax =  -3.09682834931380E-14  5.57649528665295E-01
 cg2d: Sum(rhs),rhsMax =   1.77684256197352E-13  5.57827643108575E-01
 cg2d: Sum(rhs),rhsMax =  -1.63549729315093E-14  5.58007163807534E-01
 cg2d: Sum(rhs),rhsMax =  -7.38298311375729E-15  5.58187404440607E-01
 cg2d: Sum(rhs),rhsMax =  -8.73884298258076E-14  5.58368713828997E-01
 cg2d: Sum(rhs),rhsMax =   9.24260668000443E-15  5.58550761127833E-01
 cg2d: Sum(rhs),rhsMax =  -6.68978761275696E-14  5.58733174898595E-01
 cg2d: Sum(rhs),rhsMax =  -7.91519627618698E-14  5.58916002414674E-01
 cg2d: Sum(rhs),rhsMax =   4.49015824521837E-14  5.59139754507280E-01
 cg2d: Sum(rhs),rhsMax =  -1.58817403672629E-13  5.59365724829634E-01
 cg2d: Sum(rhs),rhsMax =  -2.40925335237563E-13  5.59591541102491E-01
 cg2d: Sum(rhs),rhsMax =   5.93414206662146E-14  5.59815946450993E-01
 cg2d: Sum(rhs),rhsMax =  -1.57700241754100E-13  5.60039890685440E-01
 cg2d: Sum(rhs),rhsMax =  -3.38409855693556E-14  5.60263046271623E-01
 cg2d: Sum(rhs),rhsMax =   7.35522753814166E-14  5.60485092928125E-01
 cg2d: Sum(rhs),rhsMax =   1.67872660217228E-13  5.60705306246658E-01
 cg2d: Sum(rhs),rhsMax =   1.42032219319077E-13  5.60923705781545E-01
 cg2d: Sum(rhs),rhsMax =  -2.43680076117414E-13  5.61139882071480E-01
 cg2d: Sum(rhs),rhsMax =   1.51621770694277E-13  5.61353556631126E-01
 cg2d: Sum(rhs),rhsMax =  -1.27932386906338E-13  5.61564142900006E-01
 cg2d: Sum(rhs),rhsMax =  -9.44730405016969E-14  5.61771408062320E-01
 cg2d: Sum(rhs),rhsMax =   1.75540137981045E-13  5.61975051164967E-01
 cg2d: Sum(rhs),rhsMax =   1.46493928099289E-13  5.62174932942661E-01
 cg2d: Sum(rhs),rhsMax =   6.30953622682284E-14  5.62370807586665E-01
 cg2d: Sum(rhs),rhsMax =   7.61543605953818E-14  5.62562629148129E-01
 cg2d: Sum(rhs),rhsMax =  -1.10043918422065E-13  5.62750246869493E-01
 cg2d: Sum(rhs),rhsMax =  -2.56787646701895E-13  5.62933392884293E-01
 cg2d: Sum(rhs),rhsMax =  -3.24879012580936E-14  5.63112521980538E-01
 cg2d: Sum(rhs),rhsMax =  -1.34114941374719E-13  5.63287755817635E-01
 cg2d: Sum(rhs),rhsMax =   2.87950219224342E-13  5.63458981528903E-01
 cg2d: Sum(rhs),rhsMax =   3.43031159033558E-13  5.63626396841811E-01
 cg2d: Sum(rhs),rhsMax =  -1.73264180780563E-14  5.63789963024521E-01
 cg2d: Sum(rhs),rhsMax =   6.88893386779910E-14  5.63950097552823E-01
 cg2d: Sum(rhs),rhsMax =  -1.68039193670921E-13  5.64107082336943E-01
 cg2d: Sum(rhs),rhsMax =   1.29465882459101E-13  5.64261385443602E-01
 cg2d: Sum(rhs),rhsMax =   1.59872115546023E-14  5.64413273002703E-01
 cg2d: Sum(rhs),rhsMax =  -2.61193844330876E-13  5.64563254134067E-01
 cg2d: Sum(rhs),rhsMax =   8.74716965526545E-14  5.64711580434705E-01
 cg2d: Sum(rhs),rhsMax =   6.10969608239031E-14  5.64858775305183E-01
 cg2d: Sum(rhs),rhsMax =  -3.10723669016966E-14  5.65005041893707E-01
 cg2d: Sum(rhs),rhsMax =  -7.11375403028569E-14  5.65150640993957E-01
 cg2d: Sum(rhs),rhsMax =   2.36533015396390E-13  5.65295632933360E-01
 cg2d: Sum(rhs),rhsMax =  -2.02747540978265E-13  5.65440419494485E-01
 cg2d: Sum(rhs),rhsMax =   4.57203719328447E-13  5.65585045602365E-01
 cg2d: Sum(rhs),rhsMax =  -4.42423875313125E-13  5.65729891201794E-01
 cg2d: Sum(rhs),rhsMax =   1.34357802661356E-13  5.65874883126771E-01
 cg2d: Sum(rhs),rhsMax =  -2.38004060904018E-14  5.66020314176497E-01
 cg2d: Sum(rhs),rhsMax =  -1.33087985076941E-14  5.66166018171988E-01
 cg2d: Sum(rhs),rhsMax =  -1.15810139256212E-14  5.66312450464571E-01
 cg2d: Sum(rhs),rhsMax =   3.50414142147315E-14  5.66458736739747E-01
 cg2d: Sum(rhs),rhsMax =   2.46795639480268E-13  5.66604938634570E-01
 cg2d: Sum(rhs),rhsMax =   1.82631687550838E-14  5.66751271905255E-01
 cg2d: Sum(rhs),rhsMax =   8.43700109776080E-14  5.66896672687906E-01
 cg2d: Sum(rhs),rhsMax =   1.04971586978309E-13  5.67043366378183E-01
 cg2d: Sum(rhs),rhsMax =  -8.40022496007009E-14  5.67189562280539E-01
 cg2d: Sum(rhs),rhsMax =  -4.44227987728141E-14  5.67335299913918E-01
 cg2d: Sum(rhs),rhsMax =  -4.76702011198427E-14  5.67480461238991E-01
 cg2d: Sum(rhs),rhsMax =  -4.69069227904129E-15  5.67624874180577E-01
 cg2d: Sum(rhs),rhsMax =   1.73701331096510E-13  5.67768282015288E-01
 cg2d: Sum(rhs),rhsMax =  -1.32879818259823E-14  5.67785858262770E-01
 cg2d: Sum(rhs),rhsMax =  -4.51721993144361E-15  5.67775137764267E-01
 cg2d: Sum(rhs),rhsMax =   8.83113027150273E-14  5.67764410155780E-01
 cg2d: Sum(rhs),rhsMax =   2.20483353796652E-13  5.67753090392439E-01
 cg2d: Sum(rhs),rhsMax =  -1.00655594970078E-13  5.67741357333135E-01
 cg2d: Sum(rhs),rhsMax =  -7.83956233263439E-14  5.67729135630162E-01
 cg2d: Sum(rhs),rhsMax =  -1.12083953229813E-13  5.67716632187876E-01
 cg2d: Sum(rhs),rhsMax =  -3.22138149488893E-13  5.67703914996897E-01
 cg2d: Sum(rhs),rhsMax =   1.96245797390304E-13  5.67690987420547E-01
 cg2d: Sum(rhs),rhsMax =   4.66293670342566E-14  5.67677843200294E-01
 cg2d: Sum(rhs),rhsMax =  -7.87980791727705E-14  5.67664475313108E-01
 cg2d: Sum(rhs),rhsMax =   8.77284356270991E-14  5.67651022522190E-01
 cg2d: Sum(rhs),rhsMax =   1.61884394778156E-14  5.67637572575809E-01
 cg2d: Sum(rhs),rhsMax =  -1.13159481784919E-13  5.67624159519502E-01
 cg2d: Sum(rhs),rhsMax =  -1.18891008149546E-13  5.67610820553852E-01
 cg2d: Sum(rhs),rhsMax =   3.08669756421409E-13  5.67597573713256E-01
 cg2d: Sum(rhs),rhsMax =  -2.92293966808188E-13  5.67584407962621E-01
 cg2d: Sum(rhs),rhsMax =  -1.41053835278626E-13  5.67571332423060E-01
 cg2d: Sum(rhs),rhsMax =  -2.61041188664990E-14  5.67558293010146E-01
 cg2d: Sum(rhs),rhsMax =  -1.86510529243122E-13  5.67545037129785E-01
 cg2d: Sum(rhs),rhsMax =   2.19824158875781E-13  5.67531605523614E-01
 cg2d: Sum(rhs),rhsMax =   6.82925938022549E-14  5.67517945165672E-01
 cg2d: Sum(rhs),rhsMax =  -2.02012018224451E-13  5.67503953743942E-01
 cg2d: Sum(rhs),rhsMax =  -1.33025535031805E-13  5.67489538165020E-01
 cg2d: Sum(rhs),rhsMax =   6.97567004159794E-14  5.67474584156829E-01
 cg2d: Sum(rhs),rhsMax =   1.17017506795491E-13  5.67458979743104E-01
 cg2d: Sum(rhs),rhsMax =   8.30793767114812E-14  5.67442627894762E-01
 cg2d: Sum(rhs),rhsMax =   1.37390099297363E-14  5.67425382933156E-01
 cg2d: Sum(rhs),rhsMax =   1.42504064104543E-13  5.67407132112469E-01
 cg2d: Sum(rhs),rhsMax =  -4.71636618648574E-14  5.67387792336170E-01
 cg2d: Sum(rhs),rhsMax =   2.01894057028085E-13  5.67367259521680E-01
 cg2d: Sum(rhs),rhsMax =  -1.10016162846449E-13  5.67345432677128E-01
 cg2d: Sum(rhs),rhsMax =   2.92724178230230E-13  5.67322231874944E-01
 cg2d: Sum(rhs),rhsMax =   7.20465354042688E-14  5.67288213452248E-01
 cg2d: Sum(rhs),rhsMax =   1.01078867498217E-13  5.67252630103279E-01
 cg2d: Sum(rhs),rhsMax =  -2.33459085396959E-13  5.67215848428730E-01
 cg2d: Sum(rhs),rhsMax =  -2.23557283796083E-13  5.67177765608805E-01
 cg2d: Sum(rhs),rhsMax =   3.60753094064137E-13  5.67138487945119E-01
 cg2d: Sum(rhs),rhsMax =   6.22835116814713E-14  5.67098086777637E-01
 cg2d: Sum(rhs),rhsMax =  -1.07573672192274E-13  5.67056688845671E-01
 cg2d: Sum(rhs),rhsMax =  -9.30366894635881E-14  5.67014421700171E-01
 cg2d: Sum(rhs),rhsMax =  -1.22318821738077E-13  5.66971492040636E-01
 cg2d: Sum(rhs),rhsMax =   2.01803851407334E-13  5.66928058377392E-01
 cg2d: Sum(rhs),rhsMax =   2.28136953772662E-13  5.66884317804450E-01
 cg2d: Sum(rhs),rhsMax =   2.43555176027144E-14  5.66840586254925E-01
 cg2d: Sum(rhs),rhsMax =   2.14162021450193E-13  5.66797110573809E-01
 cg2d: Sum(rhs),rhsMax =  -7.38298311375729E-15  5.66754041036864E-01
 cg2d: Sum(rhs),rhsMax =  -1.53425883109293E-13  5.66711634012375E-01
 cg2d: Sum(rhs),rhsMax =  -9.60481694178839E-14  5.66670003950469E-01
 cg2d: Sum(rhs),rhsMax =   6.08679773250742E-14  5.66629094577465E-01
 cg2d: Sum(rhs),rhsMax =   1.04229125330590E-13  5.66589242674623E-01
 cg2d: Sum(rhs),rhsMax =   3.05519498589035E-13  5.66550707409993E-01
 cg2d: Sum(rhs),rhsMax =  -1.29965482820182E-13  5.66513722894117E-01
 cg2d: Sum(rhs),rhsMax =   1.39596667558806E-13  5.66478503120424E-01
 cg2d: Sum(rhs),rhsMax =   2.51972054332583E-13  5.66445222854951E-01
 cg2d: Sum(rhs),rhsMax =  -1.87551363328708E-13  5.66414017121605E-01
 cg2d: Sum(rhs),rhsMax =  -2.38406516750445E-13  5.66384996766167E-01
 cg2d: Sum(rhs),rhsMax =  -1.39839528845442E-13  5.66358208411818E-01
 cg2d: Sum(rhs),rhsMax =  -9.29811783123569E-15  5.66333347403386E-01
 cg2d: Sum(rhs),rhsMax =  -1.01550712283682E-13  5.66310336864092E-01
 cg2d: Sum(rhs),rhsMax =   6.40529296269676E-14  5.66289061704377E-01
 cg2d: Sum(rhs),rhsMax =  -3.05311331771918E-14  5.66269360129553E-01
 cg2d: Sum(rhs),rhsMax =  -1.01030295240889E-13  5.66251036130406E-01
 cg2d: Sum(rhs),rhsMax =   1.38673794669586E-13  5.66233895533865E-01
 cg2d: Sum(rhs),rhsMax =   1.82721893171589E-13  5.66217607245478E-01
 cg2d: Sum(rhs),rhsMax =  -1.09703912620773E-14  5.66201890566210E-01
 cg2d: Sum(rhs),rhsMax =   2.67071087467485E-13  5.66186447553761E-01
 cg2d: Sum(rhs),rhsMax =  -3.28861937681779E-13  5.66170959590865E-01
 cg2d: Sum(rhs),rhsMax =   1.65034652610530E-13  5.66155114341999E-01
 cg2d: Sum(rhs),rhsMax =  -1.35919053789735E-13  5.66138534335561E-01
 cg2d: Sum(rhs),rhsMax =   1.56284707397703E-13  5.66121034200823E-01
 cg2d: Sum(rhs),rhsMax =   4.19525525430231E-14  5.66102159350225E-01
 cg2d: Sum(rhs),rhsMax =  -1.88522808475255E-13  5.66081680732101E-01
 cg2d: Sum(rhs),rhsMax =   2.25493235195273E-13  5.66059345700414E-01
 cg2d: Sum(rhs),rhsMax =  -8.86929418797422E-14  5.66034851350327E-01
 cg2d: Sum(rhs),rhsMax =   6.80566714095221E-14  5.66008089816195E-01
 cg2d: Sum(rhs),rhsMax =  -1.22603316388137E-13  5.65978863135797E-01
 cg2d: Sum(rhs),rhsMax =   3.40491523864728E-14  5.65947082341906E-01
 cg2d: Sum(rhs),rhsMax =  -3.55895868331402E-14  5.65912665514323E-01
 cg2d: Sum(rhs),rhsMax =   1.13353770814228E-13  5.65875603301733E-01
 cg2d: Sum(rhs),rhsMax =   1.08385522779031E-14  5.65835996236654E-01
 cg2d: Sum(rhs),rhsMax =   8.85680417894719E-14  5.65793850960876E-01
 cg2d: Sum(rhs),rhsMax =  -1.06435693592033E-13  5.65749438106243E-01
 cg2d: Sum(rhs),rhsMax =   6.17006445935431E-14  5.65702975358096E-01
 cg2d: Sum(rhs),rhsMax =   1.86670123802912E-13  5.65654603080587E-01
 cg2d: Sum(rhs),rhsMax =  -9.32171007050897E-14  5.65604501254037E-01
 cg2d: Sum(rhs),rhsMax =  -5.42205169651311E-14  5.65552930389558E-01
 cg2d: Sum(rhs),rhsMax =  -1.02987063321791E-13  5.65500402487337E-01
 cg2d: Sum(rhs),rhsMax =  -1.06074871109030E-13  5.65390627994102E-01
 cg2d: Sum(rhs),rhsMax =   1.46258005706557E-13  5.65235569255782E-01
 cg2d: Sum(rhs),rhsMax =  -1.14706855125490E-13  5.65081188976250E-01
 cg2d: Sum(rhs),rhsMax =  -1.96231919602496E-14  5.64928397114836E-01
 cg2d: Sum(rhs),rhsMax =   1.00773556166445E-13  5.64777297902839E-01
 cg2d: Sum(rhs),rhsMax =  -1.80855330711438E-13  5.64628316853906E-01
 cg2d: Sum(rhs),rhsMax =   9.67559365960824E-14  5.64481727498579E-01
 cg2d: Sum(rhs),rhsMax =  -4.77048955893622E-14  5.64337714887186E-01
 cg2d: Sum(rhs),rhsMax =   3.00801050734378E-14  5.64196140504078E-01
 cg2d: Sum(rhs),rhsMax =  -1.85539084096575E-13  5.64057004345978E-01
 cg2d: Sum(rhs),rhsMax =   1.11022302462516E-15  5.63920240679548E-01
 cg2d: Sum(rhs),rhsMax =  -4.02594624304697E-14  5.63785663080107E-01
 cg2d: Sum(rhs),rhsMax =  -6.51423359698811E-14  5.63653142572471E-01
 cg2d: Sum(rhs),rhsMax =  -3.47083473073440E-14  5.63522408291427E-01
 cg2d: Sum(rhs),rhsMax =   1.07650000025217E-13  5.63393167019048E-01
 cg2d: Sum(rhs),rhsMax =   5.31796828795450E-14  5.63265092154736E-01
 cg2d: Sum(rhs),rhsMax =   2.35977903884077E-13  5.63137819027265E-01
 cg2d: Sum(rhs),rhsMax =  -4.73440731063590E-14  5.63010974582411E-01
 cg2d: Sum(rhs),rhsMax =   1.18370591106753E-13  5.62884174266428E-01
 cg2d: Sum(rhs),rhsMax =   1.26079702233994E-14  5.62757025574380E-01
 cg2d: Sum(rhs),rhsMax =  -2.79151701754188E-14  5.62629161173566E-01
 cg2d: Sum(rhs),rhsMax =   2.73857325705507E-13  5.62500207231147E-01
 cg2d: Sum(rhs),rhsMax =   2.97636915114197E-13  5.62369833052867E-01
 cg2d: Sum(rhs),rhsMax =   3.95246335660460E-13  5.62237757574039E-01
 cg2d: Sum(rhs),rhsMax =   2.14765705219833E-13  5.62103704269095E-01
 cg2d: Sum(rhs),rhsMax =  -1.19217136163030E-13  5.61967425794065E-01
 cg2d: Sum(rhs),rhsMax =   8.48071612935541E-14  5.61828823900449E-01
 cg2d: Sum(rhs),rhsMax =   5.47686895835398E-14  5.61687731493710E-01
 cg2d: Sum(rhs),rhsMax =   2.03885519578506E-13  5.61544062277560E-01
 cg2d: Sum(rhs),rhsMax =  -6.52602971662475E-14  5.61397793818692E-01
 cg2d: Sum(rhs),rhsMax =  -2.14175899238001E-13  5.61249011609934E-01
 cg2d: Sum(rhs),rhsMax =  -2.49932019524834E-13  5.61097798983334E-01
 cg2d: Sum(rhs),rhsMax =  -2.41834330338975E-13  5.60944332024122E-01
 cg2d: Sum(rhs),rhsMax =   1.89015469942433E-14  5.60788833489721E-01
 cg2d: Sum(rhs),rhsMax =   5.96675486796983E-14  5.60631599797647E-01
 cg2d: Sum(rhs),rhsMax =  -3.40144579169532E-14  5.60472833865560E-01
 cg2d: Sum(rhs),rhsMax =   2.29351260205846E-13  5.60312765886735E-01
 cg2d: Sum(rhs),rhsMax =   8.48626724447854E-15  5.60151786767513E-01
 cg2d: Sum(rhs),rhsMax =  -2.08007222557427E-13  5.59990150603758E-01
 cg2d: Sum(rhs),rhsMax =   5.81271142330309E-14  5.59828119866026E-01
 cg2d: Sum(rhs),rhsMax =  -2.47579734491410E-13  5.59665781920172E-01
 cg2d: Sum(rhs),rhsMax =   1.00613961606655E-15  5.59503450432267E-01
 cg2d: Sum(rhs),rhsMax =  -6.31439345255558E-16  5.59341433613731E-01
 cg2d: Sum(rhs),rhsMax =  -9.83449433000771E-14  5.59180513708043E-01
 cg2d: Sum(rhs),rhsMax =  -2.55614973632134E-13  5.59020387877727E-01
 cg2d: Sum(rhs),rhsMax =  -7.12624403931272E-14  5.58861438341259E-01
 cg2d: Sum(rhs),rhsMax =   3.59844098962725E-13  5.58703964216029E-01
 cg2d: Sum(rhs),rhsMax =  -6.48786580015326E-14  5.58548152432075E-01
 cg2d: Sum(rhs),rhsMax =  -8.06507638451137E-14  5.58394061060454E-01
 cg2d: Sum(rhs),rhsMax =   2.52992071736458E-14  5.58241523182970E-01
 cg2d: Sum(rhs),rhsMax =   8.56328896681191E-14  5.58090570524977E-01
 cg2d: Sum(rhs),rhsMax =   1.35405575640846E-13  5.57941176847690E-01
 cg2d: Sum(rhs),rhsMax =  -2.90184543061400E-14  5.57793333235287E-01
 cg2d: Sum(rhs),rhsMax =   1.28771993068710E-13  5.57646918017857E-01
 cg2d: Sum(rhs),rhsMax =  -6.02434768737226E-14  5.57501829209067E-01
 cg2d: Sum(rhs),rhsMax =  -3.01078606490535E-14  5.57357891404646E-01
 cg2d: Sum(rhs),rhsMax =  -3.46778161741668E-13  5.57214930703793E-01
 cg2d: Sum(rhs),rhsMax =  -2.43277620270987E-13  5.57072742070345E-01
 cg2d: Sum(rhs),rhsMax =  -1.92332261228501E-13  5.56931120651227E-01
 cg2d: Sum(rhs),rhsMax =   2.82690537645180E-13  5.56789868289242E-01
 cg2d: Sum(rhs),rhsMax =   5.41997002834194E-14  5.56648775930357E-01
 cg2d: Sum(rhs),rhsMax =  -6.94583279781114E-14  5.56507639945476E-01
 cg2d: Sum(rhs),rhsMax =  -1.84630088995164E-13  5.56366302340927E-01
 cg2d: Sum(rhs),rhsMax =   1.43635103810880E-13  5.56224448905442E-01
 cg2d: Sum(rhs),rhsMax =  -3.62279650722996E-14  5.56081868755326E-01
 cg2d: Sum(rhs),rhsMax =  -1.00905395150619E-13  5.55938422266035E-01
 cg2d: Sum(rhs),rhsMax =   1.17961196366423E-15  5.55794051538469E-01
 cg2d: Sum(rhs),rhsMax =  -6.37684349769074E-15  5.55648723436220E-01
 cg2d: Sum(rhs),rhsMax =   4.18137746649450E-14  5.55502348931727E-01
 cg2d: Sum(rhs),rhsMax =   5.49560397189452E-15  5.55355005673939E-01
 cg2d: Sum(rhs),rhsMax =  -8.31557045444242E-14  5.55206764261008E-01
 cg2d: Sum(rhs),rhsMax =  -3.56346896435156E-13  5.55057566127665E-01
 cg2d: Sum(rhs),rhsMax =   7.15885684066109E-14  5.54907508226928E-01
 cg2d: Sum(rhs),rhsMax =  -1.30152832955588E-13  5.54756955096046E-01
 cg2d: Sum(rhs),rhsMax =  -1.39041556046493E-13  5.54605675247787E-01
 cg2d: Sum(rhs),rhsMax =   4.69069227904129E-15  5.54453654259542E-01
 cg2d: Sum(rhs),rhsMax =  -2.84453016696773E-13  5.54301217748132E-01
 cg2d: Sum(rhs),rhsMax =   3.06213387979426E-14  5.54148594987673E-01
 cg2d: Sum(rhs),rhsMax =   5.94593818625810E-14  5.53996044249728E-01
 cg2d: Sum(rhs),rhsMax =   8.34263214066766E-14  5.53843789273654E-01
 cg2d: Sum(rhs),rhsMax =   1.59414148548365E-13  5.53692058896766E-01
 cg2d: Sum(rhs),rhsMax =  -1.44127765278057E-13  5.53541086733394E-01
 cg2d: Sum(rhs),rhsMax =  -1.98618899105441E-13  5.53391083280682E-01
 cg2d: Sum(rhs),rhsMax =   6.36088404171176E-14  5.53242226878471E-01
 cg2d: Sum(rhs),rhsMax =   3.35342864588029E-13  5.53094663877664E-01
 cg2d: Sum(rhs),rhsMax =   1.12201914426180E-14  5.52948518509281E-01
 cg2d: Sum(rhs),rhsMax =   4.41348346758019E-13  5.52803853396437E-01
 cg2d: Sum(rhs),rhsMax =  -5.03139196972313E-13  5.52660740903233E-01
 cg2d: Sum(rhs),rhsMax =  -2.95180546672213E-13  5.52519176418588E-01
 cg2d: Sum(rhs),rhsMax =  -1.89147308926607E-13  5.52378935080459E-01
 cg2d: Sum(rhs),rhsMax =  -2.12309336777849E-13  5.52239797057569E-01
 cg2d: Sum(rhs),rhsMax =   1.53252410761695E-13  5.52101690090530E-01
 cg2d: Sum(rhs),rhsMax =   9.38138455808257E-15  5.51964513624804E-01
 cg2d: Sum(rhs),rhsMax =   3.63521712731796E-13  5.51828165584646E-01
 cg2d: Sum(rhs),rhsMax =   3.24254512129585E-14  5.51692530828298E-01
 cg2d: Sum(rhs),rhsMax =   3.79994646859672E-13  5.51557489818891E-01
 cg2d: Sum(rhs),rhsMax =   2.73343847556617E-13  5.51421691909591E-01
 cg2d: Sum(rhs),rhsMax =   6.85909662401230E-14  5.51284983320843E-01
 cg2d: Sum(rhs),rhsMax =   2.72566691439380E-13  5.51147436448812E-01
 cg2d: Sum(rhs),rhsMax =   9.65894031423886E-14  5.51009149197343E-01
 cg2d: Sum(rhs),rhsMax =   2.29323504630230E-13  5.50870202998513E-01
 cg2d: Sum(rhs),rhsMax =   4.83349471558370E-13  5.50730730298875E-01
 cg2d: Sum(rhs),rhsMax =   1.65166491594704E-13  5.50590881315562E-01
 cg2d: Sum(rhs),rhsMax =  -1.70238823038460E-13  5.50450807093472E-01
 cg2d: Sum(rhs),rhsMax =  -1.72493963557230E-13  5.50310708710435E-01
 cg2d: Sum(rhs),rhsMax =   1.83658643848617E-13  5.50170765315591E-01
 cg2d: Sum(rhs),rhsMax =  -1.45494727377127E-13  5.50030959132324E-01
 cg2d: Sum(rhs),rhsMax =   1.50948697985598E-13  5.49891729325059E-01
 cg2d: Sum(rhs),rhsMax =  -7.47041317694652E-14  5.49753291508171E-01
 cg2d: Sum(rhs),rhsMax =  -9.08856323533769E-14  5.49615846150105E-01
 cg2d: Sum(rhs),rhsMax =  -1.34364741555260E-13  5.49479584709975E-01
 cg2d: Sum(rhs),rhsMax =   1.62356239563621E-13  5.49344610765923E-01
 cg2d: Sum(rhs),rhsMax =  -1.17364451490687E-13  5.49210785670728E-01
 cg2d: Sum(rhs),rhsMax =   1.78565495723149E-13  5.49078191174615E-01
 cg2d: Sum(rhs),rhsMax =   2.57710519591114E-13  5.48946935273839E-01
 cg2d: Sum(rhs),rhsMax =  -1.86198279017447E-13  5.48817090716064E-01
 cg2d: Sum(rhs),rhsMax =   1.23678844943242E-13  5.48688702705442E-01
 cg2d: Sum(rhs),rhsMax =  -1.77219350305791E-13  5.48561784639051E-01
 cg2d: Sum(rhs),rhsMax =   2.94889113128249E-13  5.48436015386003E-01
 cg2d: Sum(rhs),rhsMax =  -4.56024107364783E-14  5.48311664347551E-01
 cg2d: Sum(rhs),rhsMax =  -1.05804254246777E-13  5.48188641166837E-01
 cg2d: Sum(rhs),rhsMax =   9.67559365960824E-14  5.48066720625121E-01
 cg2d: Sum(rhs),rhsMax =  -1.98077665380936E-13  5.47944871671570E-01
 cg2d: Sum(rhs),rhsMax =   1.54570800603437E-13  5.47823872473093E-01
 cg2d: Sum(rhs),rhsMax =   4.09811073964761E-13  5.47703531089506E-01
 cg2d: Sum(rhs),rhsMax =   7.19702075713258E-14  5.47583621392006E-01
 cg2d: Sum(rhs),rhsMax =  -2.51174081533634E-13  5.47458794005603E-01
 cg2d: Sum(rhs),rhsMax =  -1.56250012928183E-13  5.47333796068633E-01
 cg2d: Sum(rhs),rhsMax =  -1.32394095686550E-13  5.47208285366823E-01
 cg2d: Sum(rhs),rhsMax =   2.85785284326323E-13  5.47082022814100E-01
 cg2d: Sum(rhs),rhsMax =  -9.13574771388426E-14  5.46954865326579E-01
 cg2d: Sum(rhs),rhsMax =   1.40720768371239E-14  5.46826647372138E-01
 cg2d: Sum(rhs),rhsMax =  -3.00398594887952E-13  5.46697224623697E-01
 cg2d: Sum(rhs),rhsMax =   6.99856839148083E-14  5.46566438779517E-01
 cg2d: Sum(rhs),rhsMax =   1.96162530663457E-13  5.46434216729188E-01
 cg2d: Sum(rhs),rhsMax =  -1.43773881688958E-13  5.46300549297317E-01
 cg2d: Sum(rhs),rhsMax =   1.82659443126454E-13  5.46165397202225E-01
 cg2d: Sum(rhs),rhsMax =   1.52933221642115E-14  5.46028807013642E-01
 cg2d: Sum(rhs),rhsMax =   4.13655221187526E-13  5.45890757595779E-01
 cg2d: Sum(rhs),rhsMax =  -1.27606258892854E-13  5.45751370894881E-01
 cg2d: Sum(rhs),rhsMax =   1.10259024133086E-13  5.45610729989192E-01
 cg2d: Sum(rhs),rhsMax =   1.82853732155763E-13  5.45469326139182E-01
 cg2d: Sum(rhs),rhsMax =   3.42087469462626E-14  5.45326985927311E-01
 cg2d: Sum(rhs),rhsMax =   7.52314877061622E-14  5.45183881560714E-01
 cg2d: Sum(rhs),rhsMax =   1.82104331614141E-13  5.45040194724132E-01
 cg2d: Sum(rhs),rhsMax =   1.31047950269192E-13  5.44895880634116E-01
 cg2d: Sum(rhs),rhsMax =  -8.39189828738540E-14  5.44751409083655E-01
 cg2d: Sum(rhs),rhsMax =   1.23373533611471E-13  5.44606995057822E-01
 cg2d: Sum(rhs),rhsMax =  -3.12819214975946E-13  5.44462636441898E-01
 cg2d: Sum(rhs),rhsMax =   1.06845088332364E-13  5.44318426839643E-01
 cg2d: Sum(rhs),rhsMax =  -1.06761821605517E-13  5.44174625439636E-01
 cg2d: Sum(rhs),rhsMax =  -1.01502140026355E-13  5.44031399392244E-01
 cg2d: Sum(rhs),rhsMax =   9.90874049477952E-14  5.43888952209916E-01
 cg2d: Sum(rhs),rhsMax =  -4.82114348443474E-14  5.43734766168564E-01
 cg2d: Sum(rhs),rhsMax =   1.53765888910584E-14  5.43581568451256E-01
 cg2d: Sum(rhs),rhsMax =  -4.30211422042248E-15  5.43429968315905E-01
 cg2d: Sum(rhs),rhsMax =   2.70866662432923E-13  5.43279907052692E-01
 cg2d: Sum(rhs),rhsMax =  -2.33840724561674E-14  5.43131475659844E-01
 cg2d: Sum(rhs),rhsMax =   1.80966353013901E-14  5.42984716874493E-01
 cg2d: Sum(rhs),rhsMax =   2.65440447400067E-13  5.42839636365183E-01
 cg2d: Sum(rhs),rhsMax =   8.10462807976364E-15  5.42696185343766E-01
 cg2d: Sum(rhs),rhsMax =   2.53352894219461E-13  5.42554275990899E-01
 cg2d: Sum(rhs),rhsMax =   3.26821902874030E-14  5.42413783793847E-01
 cg2d: Sum(rhs),rhsMax =  -1.36432531938624E-13  5.42274555524884E-01
 cg2d: Sum(rhs),rhsMax =   2.95555246943024E-13  5.42136409669552E-01
 cg2d: Sum(rhs),rhsMax =  -3.98986399474666E-14  5.41999149181547E-01
 cg2d: Sum(rhs),rhsMax =  -1.43912659567036E-14  5.41862566280888E-01
 cg2d: Sum(rhs),rhsMax =   3.24698601339435E-13  5.41726432575400E-01
 cg2d: Sum(rhs),rhsMax =   7.24698079324071E-14  5.41590282282783E-01
 cg2d: Sum(rhs),rhsMax =  -5.70515856779252E-14  5.41453818491647E-01
 cg2d: Sum(rhs),rhsMax =  -3.41393580072236E-14  5.41316856870642E-01
 cg2d: Sum(rhs),rhsMax =  -1.84477433329278E-13  5.41179166418740E-01
 cg2d: Sum(rhs),rhsMax =   1.79883885564891E-13  5.41040629440530E-01
 cg2d: Sum(rhs),rhsMax =  -1.74291137078342E-13  5.40901076808658E-01
 cg2d: Sum(rhs),rhsMax =  -4.86277684785819E-14  5.40760408854466E-01
 cg2d: Sum(rhs),rhsMax =   6.24500451351651E-15  5.40618553817984E-01
 cg2d: Sum(rhs),rhsMax =   2.81261125500976E-13  5.40475472249316E-01
 cg2d: Sum(rhs),rhsMax =  -1.53266288549503E-13  5.40331168491905E-01
 cg2d: Sum(rhs),rhsMax =   1.02612363050980E-13  5.40185670418114E-01
 cg2d: Sum(rhs),rhsMax =  -2.89865353941821E-13  5.40039039120782E-01
 cg2d: Sum(rhs),rhsMax =  -1.92623694772465E-14  5.39891377200445E-01
 cg2d: Sum(rhs),rhsMax =   2.33382757564016E-13  5.39742828101059E-01
 cg2d: Sum(rhs),rhsMax =  -2.53450038734115E-13  5.39593315174256E-01
 cg2d: Sum(rhs),rhsMax =   1.15726872529365E-13  5.39442834362177E-01
 cg2d: Sum(rhs),rhsMax =  -1.02001740387436E-13  5.39291595019480E-01
 cg2d: Sum(rhs),rhsMax =   1.56208379564760E-13  5.39139619581276E-01
 cg2d: Sum(rhs),rhsMax =  -9.97396609747625E-14  5.38987227257066E-01
 cg2d: Sum(rhs),rhsMax =  -1.05734865307738E-13  5.38834638213990E-01
 cg2d: Sum(rhs),rhsMax =   1.70710667823926E-13  5.38682091093331E-01
 cg2d: Sum(rhs),rhsMax =  -1.38777878078145E-15  5.38529822758935E-01
 cg2d: Sum(rhs),rhsMax =   2.12482809125447E-13  5.38378039874201E-01
 cg2d: Sum(rhs),rhsMax =   3.28972959984242E-13  5.38226961393175E-01
 cg2d: Sum(rhs),rhsMax =  -2.49120168938077E-13  5.38076766158447E-01
 cg2d: Sum(rhs),rhsMax =  -1.88432602854505E-13  5.37927623243162E-01
 cg2d: Sum(rhs),rhsMax =   6.61692922676593E-14  5.37779666156311E-01
 cg2d: Sum(rhs),rhsMax =   1.95482519060874E-13  5.37633013127065E-01
 cg2d: Sum(rhs),rhsMax =   1.38375422231718E-13  5.37487724726516E-01
 cg2d: Sum(rhs),rhsMax =   1.32130417718201E-13  5.37343951008103E-01
 cg2d: Sum(rhs),rhsMax =  -6.90975054951082E-14  5.37201588989027E-01
 cg2d: Sum(rhs),rhsMax =   5.23206478142413E-13  5.37060608140306E-01
 cg2d: Sum(rhs),rhsMax =  -1.81035741952940E-13  5.36920918491535E-01
 cg2d: Sum(rhs),rhsMax =  -2.30621077790261E-13  5.36782419095796E-01
 cg2d: Sum(rhs),rhsMax =   5.26939603062715E-14  5.36644986122159E-01
 cg2d: Sum(rhs),rhsMax =   8.92202978164391E-14  5.36508457473056E-01
 cg2d: Sum(rhs),rhsMax =   4.89858154040235E-13  5.36372679782459E-01
 cg2d: Sum(rhs),rhsMax =   1.76067493917742E-13  5.36237477808578E-01
 cg2d: Sum(rhs),rhsMax =   2.47440956613332E-14  5.36102665565068E-01
 cg2d: Sum(rhs),rhsMax =  -1.29479760246909E-13  5.35968050031221E-01
 cg2d: Sum(rhs),rhsMax =  -2.85257928389626E-13  5.35833459566014E-01
 cg2d: Sum(rhs),rhsMax =  -2.34715025193566E-13  5.35698624751357E-01
 cg2d: Sum(rhs),rhsMax =   1.79509185294080E-13  5.35563270907949E-01
 cg2d: Sum(rhs),rhsMax =  -2.54934962029552E-13  5.35427307363528E-01
 cg2d: Sum(rhs),rhsMax =   1.44967371440430E-13  5.35290666924750E-01
 cg2d: Sum(rhs),rhsMax =  -9.27730114952396E-14  5.35153319292222E-01
 cg2d: Sum(rhs),rhsMax =  -3.67011976365461E-13  5.35015237855361E-01
 cg2d: Sum(rhs),rhsMax =  -7.44959649523480E-14  5.34876429600164E-01
 cg2d: Sum(rhs),rhsMax =   5.50365308882306E-13  5.34736941749752E-01
 cg2d: Sum(rhs),rhsMax =  -5.43592948432092E-14  5.34597097253348E-01
 cg2d: Sum(rhs),rhsMax =   1.19723675418015E-13  5.34456436682584E-01
 cg2d: Sum(rhs),rhsMax =   2.44249065417534E-15  5.34315003654078E-01
 cg2d: Sum(rhs),rhsMax =  -1.44634304533042E-13  5.34172883237962E-01
 cg2d: Sum(rhs),rhsMax =   1.61218260963381E-13  5.34030171022610E-01
 cg2d: Sum(rhs),rhsMax =  -9.37028232783632E-14  5.33886996591616E-01
 cg2d: Sum(rhs),rhsMax =  -3.27168847569226E-13  5.33743469595801E-01
 cg2d: Sum(rhs),rhsMax =   9.01639873873705E-14  5.33599763461262E-01
 cg2d: Sum(rhs),rhsMax =   2.18436380095000E-14  5.33456698805689E-01
 cg2d: Sum(rhs),rhsMax =  -1.62356239563621E-13  5.33312817678260E-01
 cg2d: Sum(rhs),rhsMax =   1.55431223447522E-15  5.33169334997852E-01
 cg2d: Sum(rhs),rhsMax =   5.89667203954036E-14  5.33026488400703E-01
 cg2d: Sum(rhs),rhsMax =   1.84741111297626E-13  5.32884107599970E-01
 cg2d: Sum(rhs),rhsMax =  -2.84022805274731E-13  5.32742468708988E-01
 cg2d: Sum(rhs),rhsMax =   1.63688507193172E-13  5.32601593651016E-01
 cg2d: Sum(rhs),rhsMax =   4.45005143845378E-13  5.32461586005330E-01
 cg2d: Sum(rhs),rhsMax =   4.66113259101064E-13  5.32322411705078E-01
 cg2d: Sum(rhs),rhsMax =  -3.79821174512074E-13  5.32184128208686E-01
 cg2d: Sum(rhs),rhsMax =   5.46646061749811E-14  5.32046735449010E-01
 cg2d: Sum(rhs),rhsMax =   2.17423301585029E-13  5.31910186147319E-01
 cg2d: Sum(rhs),rhsMax =  -4.85417261941734E-13  5.31774528292986E-01
 cg2d: Sum(rhs),rhsMax =  -6.11732886568461E-14  5.31639637059577E-01
 cg2d: Sum(rhs),rhsMax =   1.38403177807334E-13  5.31505475922482E-01
 cg2d: Sum(rhs),rhsMax =  -2.62082022750576E-13  5.31371878923252E-01
 cg2d: Sum(rhs),rhsMax =   2.07625583392712E-13  5.31238716653781E-01
 cg2d: Sum(rhs),rhsMax =  -8.26838597589585E-13  5.31105751730860E-01
 cg2d: Sum(rhs),rhsMax =   4.98351360178617E-14  5.30972982618295E-01
 cg2d: Sum(rhs),rhsMax =  -1.27911570224626E-13  5.30840152064355E-01
 cg2d: Sum(rhs),rhsMax =   1.73958070170954E-13  5.30706861830932E-01
 cg2d: Sum(rhs),rhsMax =   6.45317133063372E-14  5.30573142263427E-01
 cg2d: Sum(rhs),rhsMax =   2.64829824736523E-13  5.30438856323873E-01
 cg2d: Sum(rhs),rhsMax =  -2.17492690524068E-13  5.30303791475708E-01
 cg2d: Sum(rhs),rhsMax =  -4.25576240914438E-13  5.30167906677982E-01
 cg2d: Sum(rhs),rhsMax =   2.60999555301566E-13  5.30030949094739E-01
 cg2d: Sum(rhs),rhsMax =   1.85781945383212E-13  5.29892864187856E-01
 cg2d: Sum(rhs),rhsMax =  -3.13957193576186E-13  5.29753509240621E-01
 cg2d: Sum(rhs),rhsMax =   1.66117120059539E-13  5.29612853510483E-01
 cg2d: Sum(rhs),rhsMax =  -1.21236354289067E-13  5.29405473370064E-01
 cg2d: Sum(rhs),rhsMax =   2.76403899768241E-13  5.29126762948897E-01
 cg2d: Sum(rhs),rhsMax =  -3.46139783502508E-13  5.28846370458472E-01
 cg2d: Sum(rhs),rhsMax =   2.21933582622569E-13  5.28566162633539E-01
 cg2d: Sum(rhs),rhsMax =   3.80251385934116E-15  5.28285427388557E-01
 cg2d: Sum(rhs),rhsMax =   1.57929225252929E-13  5.28004399034663E-01
 cg2d: Sum(rhs),rhsMax =  -3.10806935743813E-13  5.27722984026084E-01
 cg2d: Sum(rhs),rhsMax =   3.63736818442817E-14  5.27441284309932E-01
 cg2d: Sum(rhs),rhsMax =   1.32352462323126E-13  5.27159288386931E-01
 cg2d: Sum(rhs),rhsMax =  -3.86912724081867E-14  5.26877034584144E-01
 cg2d: Sum(rhs),rhsMax =   3.35842464949110E-15  5.26594596639488E-01
 cg2d: Sum(rhs),rhsMax =   3.53606033343112E-14  5.26311974510149E-01
 cg2d: Sum(rhs),rhsMax =   3.19910764545739E-13  5.26029171935516E-01
 cg2d: Sum(rhs),rhsMax =   4.48668879826641E-14  5.25746263968905E-01
 cg2d: Sum(rhs),rhsMax =  -3.02591285361586E-13  5.25463277213480E-01
 cg2d: Sum(rhs),rhsMax =   5.32490718185841E-14  5.25180213147127E-01
 cg2d: Sum(rhs),rhsMax =   1.14422360475430E-13  5.24897022696985E-01
 cg2d: Sum(rhs),rhsMax =   2.59514632006130E-15  5.24613793025159E-01
 cg2d: Sum(rhs),rhsMax =  -8.29572521787725E-13  5.24330616965655E-01
 cg2d: Sum(rhs),rhsMax =   1.88737914186277E-14  5.24047541979478E-01
 cg2d: Sum(rhs),rhsMax =   2.14189777025808E-13  5.23765247458848E-01
 cg2d: Sum(rhs),rhsMax =   2.24903429213441E-13  5.23483272127964E-01
 cg2d: Sum(rhs),rhsMax =   1.96925808992887E-14  5.23201656804310E-01
 cg2d: Sum(rhs),rhsMax =  -2.40432673770385E-13  5.22921434757752E-01
 cg2d: Sum(rhs),rhsMax =  -2.74474887262954E-13  5.22641913412884E-01
 cg2d: Sum(rhs),rhsMax =   2.23959739642510E-13  5.22362923640631E-01
 cg2d: Sum(rhs),rhsMax =   2.71449529520851E-13  5.22087761908262E-01
 cg2d: Sum(rhs),rhsMax =  -3.02716185451857E-13  5.21813166532686E-01
 cg2d: Sum(rhs),rhsMax =   3.24393290007663E-13  5.21538998693675E-01
 cg2d: Sum(rhs),rhsMax =  -3.52495810318487E-15  5.21265230190961E-01
 cg2d: Sum(rhs),rhsMax =   5.32116017915030E-13  5.20991890440856E-01
 cg2d: Sum(rhs),rhsMax =   5.17641485231479E-15  5.20718951245330E-01
 cg2d: Sum(rhs),rhsMax =   2.36907715667201E-13  5.20446459808705E-01
 cg2d: Sum(rhs),rhsMax =   1.58761892521397E-14  5.20174404349328E-01
 cg2d: Sum(rhs),rhsMax =  -3.26780269510607E-13  5.19902720919023E-01
 cg2d: Sum(rhs),rhsMax =   6.47953912746857E-14  5.19631418945246E-01
 cg2d: Sum(rhs),rhsMax =  -7.67816366042950E-13  5.19360500179146E-01
 cg2d: Sum(rhs),rhsMax =  -9.07746100509144E-14  5.19089964841239E-01
 cg2d: Sum(rhs),rhsMax =   3.75519060291651E-13  5.18819291877582E-01
 cg2d: Sum(rhs),rhsMax =   3.67039731941077E-13  5.18548994909087E-01
 cg2d: Sum(rhs),rhsMax =   2.48509546274533E-13  5.18279103888887E-01
 cg2d: Sum(rhs),rhsMax =   2.19060880546351E-13  5.18009612592237E-01
 cg2d: Sum(rhs),rhsMax =   2.89629431549088E-14  5.17740536240486E-01
 cg2d: Sum(rhs),rhsMax =   3.32928129509469E-14  5.17471580962149E-01
 cg2d: Sum(rhs),rhsMax =  -2.62609378687273E-13  5.17203548013747E-01
 cg2d: Sum(rhs),rhsMax =  -4.51999548900517E-14  5.16935747332081E-01
 cg2d: Sum(rhs),rhsMax =   6.40057451484211E-13  5.16668363410188E-01
 cg2d: Sum(rhs),rhsMax =  -5.86572457272894E-13  5.16401477807462E-01
 cg2d: Sum(rhs),rhsMax =  -8.39883718128931E-14  5.16135041369146E-01
 cg2d: Sum(rhs),rhsMax =  -1.81715753555522E-13  5.15869062839255E-01
 cg2d: Sum(rhs),rhsMax =   3.29541949284362E-13  5.15603555906142E-01
 cg2d: Sum(rhs),rhsMax =   3.96876975727878E-13  5.15338511311094E-01
 cg2d: Sum(rhs),rhsMax =   1.93151050709162E-13  5.15073961921033E-01
 cg2d: Sum(rhs),rhsMax =   2.94625435159901E-14  5.14809923901597E-01
 cg2d: Sum(rhs),rhsMax =   7.41073868937292E-15  5.14546373389150E-01
 cg2d: Sum(rhs),rhsMax =   1.36377020787393E-13  5.14283226601527E-01
 cg2d: Sum(rhs),rhsMax =  -7.87009346581158E-14  5.14020513021945E-01
 cg2d: Sum(rhs),rhsMax =  -1.18488552303120E-13  5.13758237012176E-01
 cg2d: Sum(rhs),rhsMax =  -1.31047950269192E-13  5.13496435868695E-01
 cg2d: Sum(rhs),rhsMax =   2.72976086179710E-14  5.13235130115210E-01
 cg2d: Sum(rhs),rhsMax =   1.77025061276481E-13  5.12974286982352E-01
 cg2d: Sum(rhs),rhsMax =  -2.49786302752852E-13  5.12715156498600E-01
 cg2d: Sum(rhs),rhsMax =   2.51493270653214E-13  5.12454969293936E-01
 cg2d: Sum(rhs),rhsMax =   1.42261202817906E-13  5.12195432150085E-01
 cg2d: Sum(rhs),rhsMax =   1.61690105748846E-13  5.11936664688719E-01
 cg2d: Sum(rhs),rhsMax =  -3.95947163944754E-13  5.11678134996770E-01
 cg2d: Sum(rhs),rhsMax =  -1.65950586605845E-13  5.11419612793048E-01
 cg2d: Sum(rhs),rhsMax =  -2.50771625687207E-13  5.11160796530500E-01
 cg2d: Sum(rhs),rhsMax =   7.10403957882022E-14  5.10902022653512E-01
 cg2d: Sum(rhs),rhsMax =  -1.58817403672629E-13  5.10643274353609E-01
 cg2d: Sum(rhs),rhsMax =   1.40276679161389E-13  5.10384407757682E-01
 cg2d: Sum(rhs),rhsMax =   1.03014818897407E-13  5.10125411425517E-01
 cg2d: Sum(rhs),rhsMax =  -2.79512524237191E-13  5.09866249966569E-01
 cg2d: Sum(rhs),rhsMax =   2.75682254802234E-13  5.09606772135709E-01
 cg2d: Sum(rhs),rhsMax =   2.37893038601555E-13  5.09346960467833E-01
 cg2d: Sum(rhs),rhsMax =   1.73611125475759E-14  5.09086387194651E-01
 cg2d: Sum(rhs),rhsMax =  -3.86066179025590E-13  5.08824942210672E-01
 cg2d: Sum(rhs),rhsMax =  -1.73749903353837E-13  5.08562666802127E-01
 cg2d: Sum(rhs),rhsMax =   1.38195010990216E-13  5.08299657629980E-01
 cg2d: Sum(rhs),rhsMax =   2.57335819320303E-13  5.08036007151039E-01
 cg2d: Sum(rhs),rhsMax =   2.41431874492548E-13  5.07771874824465E-01
 cg2d: Sum(rhs),rhsMax =   4.07021638615390E-13  5.07507410437859E-01
 cg2d: Sum(rhs),rhsMax =   4.36484182131380E-13  5.07242724556614E-01
 cg2d: Sum(rhs),rhsMax =  -3.42739725489594E-13  5.06977754009752E-01
 cg2d: Sum(rhs),rhsMax =  -2.25194862757405E-13  5.06712896952286E-01
 cg2d: Sum(rhs),rhsMax =   2.14828155264968E-13  5.06508467772979E-01
 cg2d: Sum(rhs),rhsMax =  -7.86315457190767E-14  5.06478974145963E-01
 cg2d: Sum(rhs),rhsMax =   6.11594108690383E-14  5.06452674993360E-01
 cg2d: Sum(rhs),rhsMax =  -2.03170813506404E-13  5.06429722081375E-01
 cg2d: Sum(rhs),rhsMax =  -1.70766178975157E-13  5.06410278558615E-01
 cg2d: Sum(rhs),rhsMax =  -1.43635103810880E-13  5.06394307680278E-01
 cg2d: Sum(rhs),rhsMax =   1.16961995644260E-13  5.06381780558166E-01
 cg2d: Sum(rhs),rhsMax =  -1.62245217261159E-13  5.06372512440357E-01
 cg2d: Sum(rhs),rhsMax =   6.03711525215544E-13  5.06366266397929E-01
 cg2d: Sum(rhs),rhsMax =   5.91471316369052E-14  5.06362705496231E-01
 cg2d: Sum(rhs),rhsMax =   8.94007090579407E-14  5.06361449363319E-01
 cg2d: Sum(rhs),rhsMax =   1.58470458977433E-13  5.06362035498964E-01
 cg2d: Sum(rhs),rhsMax =  -3.27349258810727E-13  5.06363993909861E-01
 cg2d: Sum(rhs),rhsMax =  -2.99482660892636E-14  5.06367286589882E-01
 cg2d: Sum(rhs),rhsMax =  -1.73513980961104E-13  5.06369835260286E-01
 cg2d: Sum(rhs),rhsMax =   7.47318873450808E-14  5.06376746152257E-01
 cg2d: Sum(rhs),rhsMax =  -2.29122276707017E-14  5.06380130299808E-01
 cg2d: Sum(rhs),rhsMax =  -1.28536070675977E-13  5.06381792390952E-01
 cg2d: Sum(rhs),rhsMax =   2.32175390024736E-13  5.06384605567852E-01
 cg2d: Sum(rhs),rhsMax =   3.44030359755720E-14  5.06384395550858E-01
 cg2d: Sum(rhs),rhsMax =   2.36283215215849E-13  5.06382063467264E-01
 cg2d: Sum(rhs),rhsMax =   3.63320484808582E-14  5.06376973647620E-01
 cg2d: Sum(rhs),rhsMax =   4.07188172069084E-13  5.06368964098363E-01
 cg2d: Sum(rhs),rhsMax =   1.76386683037322E-14  5.06357812909526E-01
 cg2d: Sum(rhs),rhsMax =   4.72261119099926E-14  5.06343462973548E-01
 cg2d: Sum(rhs),rhsMax =   2.11913819825327E-14  5.06325931671114E-01
 cg2d: Sum(rhs),rhsMax =   1.28355659434476E-13  5.06305329884499E-01
 cg2d: Sum(rhs),rhsMax =   1.78232428815761E-13  5.06281863265944E-01
 cg2d: Sum(rhs),rhsMax =  -6.60721477530046E-14  5.06255817717307E-01
 cg2d: Sum(rhs),rhsMax =  -2.23793206188816E-13  5.06227576017066E-01
 cg2d: Sum(rhs),rhsMax =  -2.94542168433054E-13  5.06197576993142E-01
 cg2d: Sum(rhs),rhsMax =  -1.13256626299574E-13  5.06166624800481E-01
 cg2d: Sum(rhs),rhsMax =   4.81240047811582E-13  5.06135539921560E-01
 cg2d: Sum(rhs),rhsMax =  -6.97913948854989E-14  5.06104880266585E-01
 cg2d: Sum(rhs),rhsMax =  -2.34021135803175E-13  5.06075201595792E-01
 cg2d: Sum(rhs),rhsMax =  -9.19403442267708E-14  5.06047056172311E-01
 cg2d: Sum(rhs),rhsMax =   6.28663787693995E-15  5.06020941193987E-01
 cg2d: Sum(rhs),rhsMax =   7.58698659453216E-14  5.05997360970599E-01
 cg2d: Sum(rhs),rhsMax =   2.40057973499574E-13  5.05976712662048E-01
 cg2d: Sum(rhs),rhsMax =   3.80251385934116E-14  5.05959360401035E-01
 cg2d: Sum(rhs),rhsMax =  -3.30596661157756E-13  5.05945541401928E-01
 cg2d: Sum(rhs),rhsMax =   9.33975119465913E-14  5.05935448222681E-01
 cg2d: Sum(rhs),rhsMax =   7.78682673896469E-14  5.05929221423063E-01
 cg2d: Sum(rhs),rhsMax =   3.00509617190414E-13  5.05926805992750E-01
 cg2d: Sum(rhs),rhsMax =   3.02688429876241E-13  5.05928130747861E-01
 cg2d: Sum(rhs),rhsMax =  -4.27852198114920E-14  5.05933005334936E-01
 cg2d: Sum(rhs),rhsMax =  -5.15282261304151E-13  5.05941411649861E-01
 cg2d: Sum(rhs),rhsMax =   3.82888165617601E-14  5.05951966337773E-01
 cg2d: Sum(rhs),rhsMax =  -6.71962485654376E-14  5.05966118227370E-01
 cg2d: Sum(rhs),rhsMax =  -5.28604937599653E-14  5.05981532684454E-01
 cg2d: Sum(rhs),rhsMax =  -1.44995127016045E-13  5.05998676603565E-01
 cg2d: Sum(rhs),rhsMax =   2.86867751775333E-13  5.06016719194685E-01
 cg2d: Sum(rhs),rhsMax =   1.34531275008953E-13  5.06035637909771E-01
 cg2d: Sum(rhs),rhsMax =   1.97092342446581E-13  5.06054820594327E-01
 cg2d: Sum(rhs),rhsMax =   2.40085729075190E-14  5.06073634987677E-01
 cg2d: Sum(rhs),rhsMax =  -8.43075609324728E-14  5.06091468658399E-01
 cg2d: Sum(rhs),rhsMax =   1.63022373378396E-13  5.06107737445027E-01
 cg2d: Sum(rhs),rhsMax =   5.75872682873069E-13  5.06121903747175E-01
 cg2d: Sum(rhs),rhsMax =   2.13287720818300E-13  5.06133482425143E-01
 cg2d: Sum(rhs),rhsMax =   4.92578200450566E-13  5.06142064949947E-01
 cg2d: Sum(rhs),rhsMax =   6.73211486557079E-14  5.06147355583163E-01
 cg2d: Sum(rhs),rhsMax =  -1.99618099827603E-13  5.06149016394624E-01
 cg2d: Sum(rhs),rhsMax =   3.68691188690207E-13  5.06146947844493E-01
 cg2d: Sum(rhs),rhsMax =   1.30451205393456E-15  5.06141106632630E-01
 cg2d: Sum(rhs),rhsMax =  -4.23966417528732E-13  5.06131560805585E-01
 cg2d: Sum(rhs),rhsMax =   2.76390021980433E-13  5.06118387639169E-01
 cg2d: Sum(rhs),rhsMax =   4.04759559202716E-13  5.06101851945908E-01
 cg2d: Sum(rhs),rhsMax =   3.48526763005452E-13  5.06082277132582E-01
 cg2d: Sum(rhs),rhsMax =   2.71491162884274E-13  5.06060063135705E-01
 cg2d: Sum(rhs),rhsMax =   4.65752436618061E-13  5.06036245715531E-01
 cg2d: Sum(rhs),rhsMax =   1.57512891618694E-13  5.06011350410250E-01
 cg2d: Sum(rhs),rhsMax =   4.55746551608627E-14  5.05985778722466E-01
 cg2d: Sum(rhs),rhsMax =  -3.06338288069696E-13  5.05960093497862E-01
 cg2d: Sum(rhs),rhsMax =  -2.26263452418607E-13  5.05935027418006E-01
 cg2d: Sum(rhs),rhsMax =  -1.15657483590326E-13  5.05911119781150E-01
 cg2d: Sum(rhs),rhsMax =  -1.27675647831893E-13  5.05888903064569E-01
 cg2d: Sum(rhs),rhsMax =   3.47416539980827E-13  5.05868843866246E-01
 cg2d: Sum(rhs),rhsMax =  -9.13991105022660E-14  5.05851308917800E-01
 cg2d: Sum(rhs),rhsMax =   2.80192535839774E-13  5.05836507060437E-01
 cg2d: Sum(rhs),rhsMax =   1.12354570092066E-13  5.05824791253394E-01
 cg2d: Sum(rhs),rhsMax =   6.23112672570869E-15  5.05816528929920E-01
 cg2d: Sum(rhs),rhsMax =   6.32147112433756E-13  5.05811797366324E-01
 cg2d: Sum(rhs),rhsMax =   2.07417416575595E-13  5.05810474841395E-01
 cg2d: Sum(rhs),rhsMax =  -1.14325215960775E-13  5.05812478231448E-01
 cg2d: Sum(rhs),rhsMax =   3.25989235605562E-13  5.05817639510746E-01
 cg2d: Sum(rhs),rhsMax =   7.02771174587724E-14  5.05825696433921E-01
 cg2d: Sum(rhs),rhsMax =  -2.79762324417732E-13  5.05836329397608E-01
 cg2d: Sum(rhs),rhsMax =  -1.28660970766248E-13  5.05849155360180E-01
 cg2d: Sum(rhs),rhsMax =   3.72465946973932E-13  5.05863723075132E-01
 cg2d: Sum(rhs),rhsMax =   4.01206845523916E-13  5.05876247863917E-01
 cg2d: Sum(rhs),rhsMax =   2.72337707940551E-13  5.05886760943132E-01
 cg2d: Sum(rhs),rhsMax =  -2.40141240226421E-13  5.05898126316208E-01
 cg2d: Sum(rhs),rhsMax =  -5.04957187175137E-13  5.05909800618216E-01
 cg2d: Sum(rhs),rhsMax =   2.79776202205539E-14  5.05921228475655E-01
 cg2d: Sum(rhs),rhsMax =   1.25482957358258E-13  5.05931907720571E-01
 cg2d: Sum(rhs),rhsMax =   9.77828928938607E-14  5.05941331409833E-01
 cg2d: Sum(rhs),rhsMax =   9.97396609747625E-14  5.05949050276837E-01
 cg2d: Sum(rhs),rhsMax =  -9.78661596207075E-14  5.05954655081289E-01
 cg2d: Sum(rhs),rhsMax =   2.51187959321442E-15  5.05957831565847E-01
 cg2d: Sum(rhs),rhsMax =   2.62526111960426E-13  5.05958310617984E-01
 cg2d: Sum(rhs),rhsMax =  -2.66148214578266E-13  5.05955906510348E-01
 cg2d: Sum(rhs),rhsMax =  -1.75456871254198E-13  5.05950549646397E-01
 cg2d: Sum(rhs),rhsMax =  -1.20875531806064E-14  5.05942282785111E-01
 cg2d: Sum(rhs),rhsMax =   1.96606619873307E-13  5.05931086729771E-01
 cg2d: Sum(rhs),rhsMax =  -5.07247022163426E-13  5.05917223584686E-01
 cg2d: Sum(rhs),rhsMax =  -3.45556916414580E-15  5.05900937377842E-01
 cg2d: Sum(rhs),rhsMax =  -5.11590769747272E-13  5.05882738883941E-01
 cg2d: Sum(rhs),rhsMax =   2.06695771609589E-13  5.05863394473492E-01
 cg2d: Sum(rhs),rhsMax =  -2.91086599268908E-13  5.05843373134482E-01
 cg2d: Sum(rhs),rhsMax =   2.49161802301501E-13  5.05823157056226E-01
 cg2d: Sum(rhs),rhsMax =   9.54236689665322E-14  5.05803253205876E-01
 cg2d: Sum(rhs),rhsMax =   4.37858083124354E-13  5.05784176690166E-01
 cg2d: Sum(rhs),rhsMax =  -3.05713787618345E-13  5.05766420850932E-01
 cg2d: Sum(rhs),rhsMax =   2.40946151919275E-13  5.05750447244264E-01
 cg2d: Sum(rhs),rhsMax =   3.30513394430909E-13  5.05736722060939E-01
 cg2d: Sum(rhs),rhsMax =  -4.44366765606219E-14  5.05724983283637E-01
 cg2d: Sum(rhs),rhsMax =  -1.13659082146000E-14  5.05715769499187E-01
 cg2d: Sum(rhs),rhsMax =  -3.00176550283027E-13  5.05709579094691E-01
 cg2d: Sum(rhs),rhsMax =  -1.37764799568174E-13  5.05706824510921E-01
 cg2d: Sum(rhs),rhsMax =  -1.54584678391245E-13  5.05707842897464E-01
 cg2d: Sum(rhs),rhsMax =  -2.01408334454811E-13  5.05712863567144E-01
 cg2d: Sum(rhs),rhsMax =   1.20473075959637E-13  5.05721633849769E-01
 cg2d: Sum(rhs),rhsMax =   5.32920929607883E-13  5.05733683793118E-01
 cg2d: Sum(rhs),rhsMax =   2.02990402264902E-13  5.05748785447458E-01
 cg2d: Sum(rhs),rhsMax =   3.05491743013420E-13  5.05766652595196E-01
 cg2d: Sum(rhs),rhsMax =   1.86753390529759E-13  5.05786926821412E-01
 cg2d: Sum(rhs),rhsMax =   1.94608218428982E-13  5.05809206035350E-01
 cg2d: Sum(rhs),rhsMax =  -1.35919053789735E-13  5.05833040555829E-01
 cg2d: Sum(rhs),rhsMax =   3.45001804902267E-14  5.05857944746120E-01
 cg2d: Sum(rhs),rhsMax =   5.08065811644087E-14  5.05883418101012E-01
 cg2d: Sum(rhs),rhsMax =  -2.81982770466982E-13  5.05909331299999E-01
 cg2d: Sum(rhs),rhsMax =   1.28161370405167E-13  5.05935192770441E-01
 cg2d: Sum(rhs),rhsMax =  -2.79720691054308E-13  5.05960483435881E-01
 cg2d: Sum(rhs),rhsMax =   1.24872334694714E-13  5.05984692905587E-01
 cg2d: Sum(rhs),rhsMax =   2.08860706507608E-13  5.06007345850338E-01
 cg2d: Sum(rhs),rhsMax =  -2.88935542158697E-14  5.06027966121029E-01
 cg2d: Sum(rhs),rhsMax =  -2.24792406910979E-13  5.06046307386404E-01
 cg2d: Sum(rhs),rhsMax =  -3.00037772404949E-14  5.06062092128491E-01
 cg2d: Sum(rhs),rhsMax =   3.48748807610377E-14  5.06075073151678E-01
 cg2d: Sum(rhs),rhsMax =  -2.33424390927439E-13  5.06085145518099E-01
 cg2d: Sum(rhs),rhsMax =  -2.38004060904018E-14  5.06092234159770E-01
 cg2d: Sum(rhs),rhsMax =   1.03222985714524E-13  5.06096376419256E-01
 cg2d: Sum(rhs),rhsMax =   2.57988075347271E-13  5.06097684790239E-01
 cg2d: Sum(rhs),rhsMax =  -2.16632267679984E-14  5.06096376977663E-01
 cg2d: Sum(rhs),rhsMax =  -6.12981887471165E-14  5.06093176372129E-01
 cg2d: Sum(rhs),rhsMax =   3.13721271183454E-13  5.06088484078979E-01
 cg2d: Sum(rhs),rhsMax =   2.11053396981242E-13  5.06082671459151E-01
 cg2d: Sum(rhs),rhsMax =   4.18526324708068E-13  5.06077418868242E-01
 cg2d: Sum(rhs),rhsMax =  -2.47815656884143E-13  5.06073364536899E-01
 cg2d: Sum(rhs),rhsMax =  -4.11476408501699E-14  5.06054697431385E-01
 cg2d: Sum(rhs),rhsMax =   2.65565347490337E-13  5.06036471753387E-01
 cg2d: Sum(rhs),rhsMax =   4.57786586416375E-13  5.06019527815423E-01
 cg2d: Sum(rhs),rhsMax =  -2.98955304955939E-13  5.06003307677199E-01
 cg2d: Sum(rhs),rhsMax =  -7.63000773673639E-14  5.05988386432102E-01
 cg2d: Sum(rhs),rhsMax =   1.00017216730919E-13  5.05975307624346E-01
 cg2d: Sum(rhs),rhsMax =   1.08260622688761E-13  5.05964554228723E-01
 cg2d: Sum(rhs),rhsMax =  -8.24895707296491E-14  5.05956543340343E-01
 cg2d: Sum(rhs),rhsMax =   1.51226253741754E-13  5.05951631000703E-01
 cg2d: Sum(rhs),rhsMax =   3.06879521794201E-13  5.05950081394814E-01
 cg2d: Sum(rhs),rhsMax =  -5.11202191688653E-13  5.05952075452422E-01
 cg2d: Sum(rhs),rhsMax =  -7.89507348386564E-14  5.05957715992574E-01
 cg2d: Sum(rhs),rhsMax =   2.73309153087098E-13  5.05965984758839E-01
 cg2d: Sum(rhs),rhsMax =   3.06824010642970E-13  5.05976612171549E-01
 cg2d: Sum(rhs),rhsMax =   1.03264619077947E-13  5.05989308367073E-01
 cg2d: Sum(rhs),rhsMax =  -3.51954576593982E-13  5.06003741951473E-01
 cg2d: Sum(rhs),rhsMax =   1.88918325427778E-13  5.06019567161348E-01
 cg2d: Sum(rhs),rhsMax =  -2.11122785920281E-13  5.06036519307590E-01
 cg2d: Sum(rhs),rhsMax =   1.15907283770866E-13  5.06054188503477E-01
 cg2d: Sum(rhs),rhsMax =   8.59035065303715E-14  5.06072129201417E-01
 cg2d: Sum(rhs),rhsMax =  -4.81573114718969E-13  5.06090269637460E-01
 cg2d: Sum(rhs),rhsMax =   3.02161073939544E-13  5.06108152770386E-01
 cg2d: Sum(rhs),rhsMax =  -5.27022869789562E-13  5.06125430233470E-01
 cg2d: Sum(rhs),rhsMax =  -1.20514709323061E-13  5.06141645467198E-01
 cg2d: Sum(rhs),rhsMax =   1.62758695410048E-13  5.06156477342932E-01
 cg2d: Sum(rhs),rhsMax =  -1.74568692834498E-13  5.06169616832144E-01
 cg2d: Sum(rhs),rhsMax =   3.71341846161499E-13  5.06180835752655E-01
 cg2d: Sum(rhs),rhsMax =   7.45056794038135E-13  5.06189953193789E-01
 cg2d: Sum(rhs),rhsMax =   1.22735155372311E-13  5.06196875400288E-01
 cg2d: Sum(rhs),rhsMax =   1.95010674275409E-13  5.06201578716812E-01
 cg2d: Sum(rhs),rhsMax =   7.06795733051990E-14  5.06203473535444E-01
 cg2d: Sum(rhs),rhsMax =   3.44030359755720E-14  5.06204741815894E-01
 cg2d: Sum(rhs),rhsMax =  -9.74220704108575E-15  5.06203745254972E-01
 cg2d: Sum(rhs),rhsMax =  -2.10109707410311E-14  5.06201941566668E-01
 cg2d: Sum(rhs),rhsMax =   1.34017796860064E-13  5.06199262191255E-01
 cg2d: Sum(rhs),rhsMax =   2.51604292955676E-14  5.06196279454179E-01
 cg2d: Sum(rhs),rhsMax =   1.16157083951407E-14  5.06193305440089E-01
 cg2d: Sum(rhs),rhsMax =   1.55528367962177E-13  5.06190813451232E-01
 cg2d: Sum(rhs),rhsMax =   4.25159907280204E-13  5.06189204078471E-01
 cg2d: Sum(rhs),rhsMax =  -4.26880752968373E-14  5.06188430093742E-01
 cg2d: Sum(rhs),rhsMax =   9.78245262572841E-14  5.06188369151933E-01
 cg2d: Sum(rhs),rhsMax =  -9.63812363252714E-14  5.06189554650377E-01
 cg2d: Sum(rhs),rhsMax =   4.46864767411626E-14  5.06192507693099E-01
 cg2d: Sum(rhs),rhsMax =  -1.49408263538930E-13  5.06197711183782E-01
 cg2d: Sum(rhs),rhsMax =   3.72618602639818E-14  5.06205605405876E-01
 cg2d: Sum(rhs),rhsMax =  -1.62064806019657E-13  5.06216548017241E-01
 cg2d: Sum(rhs),rhsMax =   3.28917448833010E-13  5.06230861399254E-01
 cg2d: Sum(rhs),rhsMax =   1.89501192515706E-13  5.06248762624543E-01
 cg2d: Sum(rhs),rhsMax =   2.37448949391705E-14  5.06270396289803E-01
 cg2d: Sum(rhs),rhsMax =   1.45022882591661E-14  5.06295816272357E-01
 cg2d: Sum(rhs),rhsMax =   2.48481790698918E-13  5.06324836402853E-01
 cg2d: Sum(rhs),rhsMax =   1.52114432161454E-13  5.06356335149870E-01
 cg2d: Sum(rhs),rhsMax =   1.57665547284580E-13  5.06389982187979E-01
 cg2d: Sum(rhs),rhsMax =   1.14908083048704E-14  5.06425448165756E-01
 cg2d: Sum(rhs),rhsMax =  -1.65256697215455E-13  5.06462357744639E-01
 cg2d: Sum(rhs),rhsMax =   1.00766617272541E-13  5.06500285806992E-01
 cg2d: Sum(rhs),rhsMax =   3.58463259075847E-13  5.06538803574161E-01
 cg2d: Sum(rhs),rhsMax =  -3.39256400749832E-13  5.06577454050160E-01
 cg2d: Sum(rhs),rhsMax =   3.01314528883267E-13  5.06615860453313E-01
 cg2d: Sum(rhs),rhsMax =  -2.93237656379119E-14  5.06653952158990E-01
 cg2d: Sum(rhs),rhsMax =  -2.35922392732846E-15  5.06691322031885E-01
 cg2d: Sum(rhs),rhsMax =   5.32185406854069E-13  5.06727574829697E-01
 cg2d: Sum(rhs),rhsMax =  -2.78430056788181E-13  5.06762370381640E-01
 cg2d: Sum(rhs),rhsMax =  -2.42902920000176E-13  5.06795416527491E-01
 cg2d: Sum(rhs),rhsMax =   2.36644037698852E-13  5.06826480027727E-01
 cg2d: Sum(rhs),rhsMax =  -5.77038417048925E-14  5.06855406996929E-01
 cg2d: Sum(rhs),rhsMax =   7.41906536205761E-14  5.06882094765139E-01
 cg2d: Sum(rhs),rhsMax =  -1.92318383440693E-13  5.06906672230410E-01
 cg2d: Sum(rhs),rhsMax =   3.91728316451179E-13  5.06929165573665E-01
 cg2d: Sum(rhs),rhsMax =   2.89865353941821E-13  5.06949952049942E-01
 cg2d: Sum(rhs),rhsMax =  -3.62321284086420E-13  5.06969282373105E-01
 cg2d: Sum(rhs),rhsMax =   4.87873630383717E-13  5.06987413764988E-01
 cg2d: Sum(rhs),rhsMax =   1.44440015503733E-13  5.07004662829170E-01
 cg2d: Sum(rhs),rhsMax =   1.67407754325666E-13  5.07021377724786E-01
 cg2d: Sum(rhs),rhsMax =  -1.96787031114809E-14  5.07037914178911E-01
 cg2d: Sum(rhs),rhsMax =   1.95343741182796E-13  5.07054678760770E-01
 cg2d: Sum(rhs),rhsMax =   5.15421039182229E-14  5.07070956081682E-01
 cg2d: Sum(rhs),rhsMax =  -1.47798440153224E-13  5.07087041981361E-01
 cg2d: Sum(rhs),rhsMax =  -1.20972676320719E-13  5.07103439962770E-01
 cg2d: Sum(rhs),rhsMax =   7.19424519957101E-14  5.07120632743512E-01
 cg2d: Sum(rhs),rhsMax =   3.08031378182250E-13  5.07139081446186E-01
 cg2d: Sum(rhs),rhsMax =   3.00981461975880E-13  5.07159237689763E-01
 cg2d: Sum(rhs),rhsMax =  -1.30881416815498E-13  5.07181294661223E-01
 cg2d: Sum(rhs),rhsMax =  -3.48554518581068E-13  5.07205767484391E-01
 cg2d: Sum(rhs),rhsMax =  -6.45317133063372E-15  5.07232913137120E-01
 cg2d: Sum(rhs),rhsMax =   1.74929515317501E-13  5.07262959706060E-01
 cg2d: Sum(rhs),rhsMax =   9.66310365058121E-14  5.07295980989799E-01
 cg2d: Sum(rhs),rhsMax =   1.07747144539871E-13  5.07332010360354E-01
 cg2d: Sum(rhs),rhsMax =  -3.42004202735779E-13  5.07370999555030E-01
 cg2d: Sum(rhs),rhsMax =  -1.84643966782971E-13  5.07412801137545E-01
 cg2d: Sum(rhs),rhsMax =   2.23543406008275E-13  5.07456293382216E-01
 cg2d: Sum(rhs),rhsMax =   2.73434053177368E-13  5.07500748238970E-01
 cg2d: Sum(rhs),rhsMax =   3.87995191530877E-13  5.07545429131613E-01
 cg2d: Sum(rhs),rhsMax =   2.46191955710628E-13  5.07590308109292E-01
 cg2d: Sum(rhs),rhsMax =   3.94281829407817E-13  5.07634990156714E-01
 cg2d: Sum(rhs),rhsMax =   2.68063349295744E-13  5.07679100934848E-01
 cg2d: Sum(rhs),rhsMax =   5.21527265817667E-14  5.07722282552854E-01
 cg2d: Sum(rhs),rhsMax =   2.07514561090250E-13  5.07764190095225E-01
 cg2d: Sum(rhs),rhsMax =  -1.00211505760228E-13  5.07804813799972E-01
 cg2d: Sum(rhs),rhsMax =  -1.34975364218803E-13  5.07843886720534E-01
 cg2d: Sum(rhs),rhsMax =  -1.92901250528621E-14  5.07881316156601E-01
 cg2d: Sum(rhs),rhsMax =   1.10897402372245E-13  5.07916615731051E-01
 cg2d: Sum(rhs),rhsMax =  -1.10744746706359E-14  5.07949783526545E-01
 cg2d: Sum(rhs),rhsMax =  -2.57571741713036E-13  5.07980786556985E-01
 cg2d: Sum(rhs),rhsMax =   4.58272308989649E-13  5.08009669891924E-01
 cg2d: Sum(rhs),rhsMax =  -1.86087256714984E-13  5.08037078002877E-01
 cg2d: Sum(rhs),rhsMax =   3.40755201833076E-13  5.08062236152946E-01
 cg2d: Sum(rhs),rhsMax =  -6.43513020648356E-14  5.08086530569993E-01
 cg2d: Sum(rhs),rhsMax =  -2.77722289609983E-13  5.08109954757592E-01
 cg2d: Sum(rhs),rhsMax =  -8.03385136194379E-14  5.08132962405038E-01
 cg2d: Sum(rhs),rhsMax =   2.18797202578003E-13  5.08155989267519E-01
 cg2d: Sum(rhs),rhsMax =   7.89923682020799E-14  5.08179498093504E-01
 cg2d: Sum(rhs),rhsMax =   8.43075609324728E-14  5.08203771850983E-01
 cg2d: Sum(rhs),rhsMax =   1.06581410364015E-13  5.08228166092732E-01
 cg2d: Sum(rhs),rhsMax =  -2.69478883652141E-13  5.08253665578209E-01
 cg2d: Sum(rhs),rhsMax =   1.25760513114415E-13  5.08280890913440E-01
 cg2d: Sum(rhs),rhsMax =  -4.92661467177413E-15  5.08310169757214E-01
 cg2d: Sum(rhs),rhsMax =  -2.84772205816353E-14  5.08342104220374E-01
 cg2d: Sum(rhs),rhsMax =   1.87516668859189E-13  5.08370790063185E-01
 cg2d: Sum(rhs),rhsMax =   2.34715025193566E-13  5.08403074367196E-01
 cg2d: Sum(rhs),rhsMax =   1.07081010725096E-13  5.08439716152634E-01
 cg2d: Sum(rhs),rhsMax =   3.16857651228020E-13  5.08480981323998E-01
 cg2d: Sum(rhs),rhsMax =  -6.93889390390723E-15  5.08527076949070E-01
 cg2d: Sum(rhs),rhsMax =  -3.80015463541383E-13  5.08578129204289E-01
 cg2d: Sum(rhs),rhsMax =   2.17881268582687E-14  5.08634151443095E-01
 cg2d: Sum(rhs),rhsMax =   5.24302823379230E-14  5.08695115124222E-01
 cg2d: Sum(rhs),rhsMax =   1.06942232847018E-13  5.08760784741217E-01
 cg2d: Sum(rhs),rhsMax =  -1.52267087827340E-13  5.08830840752576E-01
 cg2d: Sum(rhs),rhsMax =  -2.18464135670615E-13  5.08904914427611E-01
 cg2d: Sum(rhs),rhsMax =   3.24879012580936E-14  5.08982041134952E-01
 cg2d: Sum(rhs),rhsMax =  -2.20490292690556E-13  5.09060700187114E-01
 cg2d: Sum(rhs),rhsMax =  -1.60760293965723E-13  5.09140210767953E-01
 cg2d: Sum(rhs),rhsMax =  -3.69204666839096E-13  5.09219996818339E-01
 cg2d: Sum(rhs),rhsMax =   3.69218544626904E-13  5.09299415475206E-01
 cg2d: Sum(rhs),rhsMax =  -3.74270059388948E-13  5.09377890591755E-01
 cg2d: Sum(rhs),rhsMax =  -1.56263890715991E-14  5.09454839450342E-01
 cg2d: Sum(rhs),rhsMax =   3.86080056813398E-14  5.09529786034330E-01
 cg2d: Sum(rhs),rhsMax =  -1.41886502547095E-13  5.09602439757009E-01
 cg2d: Sum(rhs),rhsMax =   1.20167764627865E-13  5.09672412274617E-01
 cg2d: Sum(rhs),rhsMax =   3.36439209824846E-13  5.09739325066611E-01
 cg2d: Sum(rhs),rhsMax =  -2.49938958418738E-14  5.09789974866411E-01
 cg2d: Sum(rhs),rhsMax =   5.42774158951431E-13  5.09761074525808E-01
 cg2d: Sum(rhs),rhsMax =  -1.35280675550575E-13  5.09727412484425E-01
 cg2d: Sum(rhs),rhsMax =  -4.40994463168920E-13  5.09691355582498E-01
 cg2d: Sum(rhs),rhsMax =   3.84137166520304E-14  5.09651767297132E-01
 cg2d: Sum(rhs),rhsMax =   4.65655292103406E-13  5.09609803469963E-01
 cg2d: Sum(rhs),rhsMax =  -1.81493708950597E-13  5.09565932477678E-01
 cg2d: Sum(rhs),rhsMax =   2.06917816214514E-13  5.09520646454865E-01
 cg2d: Sum(rhs),rhsMax =  -5.92303983637521E-14  5.09474670065044E-01
 cg2d: Sum(rhs),rhsMax =   2.47440956613332E-13  5.09428202233160E-01
 cg2d: Sum(rhs),rhsMax =  -4.09949851842839E-13  5.09380823068885E-01
 cg2d: Sum(rhs),rhsMax =  -1.76039738342126E-13  5.09333205084379E-01
 cg2d: Sum(rhs),rhsMax =   5.87030424270552E-15  5.09286091995277E-01
 cg2d: Sum(rhs),rhsMax =   8.11156697366755E-14  5.09240196856177E-01
 cg2d: Sum(rhs),rhsMax =   7.67580443650218E-14  5.09196255240319E-01
 cg2d: Sum(rhs),rhsMax =   5.60523849557626E-14  5.09154904368926E-01
 cg2d: Sum(rhs),rhsMax =   1.16531784222218E-13  5.09116781545601E-01
 cg2d: Sum(rhs),rhsMax =   3.53134188557647E-13  5.09082427040136E-01
 cg2d: Sum(rhs),rhsMax =  -5.07788255887931E-14  5.09052338640665E-01
 cg2d: Sum(rhs),rhsMax =  -2.28247976075124E-13  5.09026853433623E-01
 cg2d: Sum(rhs),rhsMax =   2.77972089790524E-14  5.09006005320317E-01
 cg2d: Sum(rhs),rhsMax =   3.28043148201118E-13  5.08990004894167E-01
 cg2d: Sum(rhs),rhsMax =   9.33142452197444E-14  5.08979109644209E-01
 cg2d: Sum(rhs),rhsMax =  -7.41490202571526E-14  5.08973241850907E-01
 cg2d: Sum(rhs),rhsMax =  -4.45615766508922E-14  5.08972213168613E-01
 cg2d: Sum(rhs),rhsMax =  -3.06143999040387E-14  5.08975737377439E-01
 cg2d: Sum(rhs),rhsMax =   9.13991105022660E-14  5.08983245352286E-01
 cg2d: Sum(rhs),rhsMax =  -4.98698304873813E-13  5.09060511783722E-01
 cg2d: Sum(rhs),rhsMax =  -6.77791156533658E-14  5.09140877740877E-01
 cg2d: Sum(rhs),rhsMax =  -3.75199871172072E-13  5.09220552186192E-01
 cg2d: Sum(rhs),rhsMax =  -4.14529521819418E-14  5.09299223979033E-01
 cg2d: Sum(rhs),rhsMax =   7.77294895115688E-14  5.09376072106440E-01
 cg2d: Sum(rhs),rhsMax =   1.97952765290665E-13  5.09450382542616E-01
 cg2d: Sum(rhs),rhsMax =   4.33264535359967E-14  5.09521501417531E-01
 cg2d: Sum(rhs),rhsMax =   1.42899581057065E-13  5.09588868011304E-01
 cg2d: Sum(rhs),rhsMax =   4.14973611029268E-13  5.09652020704489E-01
 cg2d: Sum(rhs),rhsMax =  -1.17961196366423E-14  5.09710560150731E-01
 cg2d: Sum(rhs),rhsMax =   2.07445172151210E-13  5.09764227889379E-01
 cg2d: Sum(rhs),rhsMax =   4.33195146420928E-13  5.09812866823372E-01
 cg2d: Sum(rhs),rhsMax =  -4.39190350753904E-13  5.09856429382304E-01
 cg2d: Sum(rhs),rhsMax =  -1.87003190710300E-13  5.09895009299339E-01
 cg2d: Sum(rhs),rhsMax =  -3.64264174379514E-13  5.09928776625332E-01
 cg2d: Sum(rhs),rhsMax =   2.80858669654549E-13  5.09957953859432E-01
 cg2d: Sum(rhs),rhsMax =   5.84393644587067E-14  5.09982883639245E-01
 cg2d: Sum(rhs),rhsMax =  -3.63320484808582E-14  5.10003992213104E-01
 cg2d: Sum(rhs),rhsMax =  -1.30728761149612E-14  5.10021763458274E-01
 cg2d: Sum(rhs),rhsMax =  -5.68295410730002E-14  5.10036012694741E-01
 cg2d: Sum(rhs),rhsMax =   3.59073881739391E-13  5.10046468896002E-01
 cg2d: Sum(rhs),rhsMax =   2.61332622208954E-13  5.10053739812577E-01
 cg2d: Sum(rhs),rhsMax =   1.65867319878998E-13  5.10058503343788E-01
 cg2d: Sum(rhs),rhsMax =  -7.42739203474230E-14  5.10061461543733E-01
 cg2d: Sum(rhs),rhsMax =  -5.26897969699291E-13  5.10063317627292E-01
 cg2d: Sum(rhs),rhsMax =   2.45234388351889E-13  5.10064796677193E-01
 cg2d: Sum(rhs),rhsMax =  -1.30034871759221E-13  5.10066582305767E-01
 cg2d: Sum(rhs),rhsMax =   3.59060003951583E-13  5.10069327237819E-01
 cg2d: Sum(rhs),rhsMax =  -9.10521658070707E-14  5.10073669174081E-01
 cg2d: Sum(rhs),rhsMax =   5.53168622019484E-14  5.10080089158937E-01
 cg2d: Sum(rhs),rhsMax =  -1.74693592924768E-13  5.10089062095341E-01
 cg2d: Sum(rhs),rhsMax =   2.07028838516976E-13  5.10100947553806E-01
 cg2d: Sum(rhs),rhsMax =  -2.66064947851419E-13  5.10116009003636E-01
 cg2d: Sum(rhs),rhsMax =   1.65076285973953E-13  5.10134403883553E-01
 cg2d: Sum(rhs),rhsMax =   2.12996287274336E-13  5.10157032574027E-01
 cg2d: Sum(rhs),rhsMax =  -3.74172914874293E-13  5.10182793338137E-01
 cg2d: Sum(rhs),rhsMax =   4.23883150801885E-13  5.10211690205382E-01
 cg2d: Sum(rhs),rhsMax =  -2.21031526415061E-13  5.10243575936171E-01
 cg2d: Sum(rhs),rhsMax =  -2.01630379059736E-13  5.10278109276584E-01
 cg2d: Sum(rhs),rhsMax =   3.01245139944228E-13  5.10314853970591E-01
 cg2d: Sum(rhs),rhsMax =   1.29354860156639E-13  5.10353276553712E-01
 cg2d: Sum(rhs),rhsMax =   5.50781642516540E-13  5.10391944320402E-01
 cg2d: Sum(rhs),rhsMax =   1.62078683807465E-13  5.10429797400284E-01
 cg2d: Sum(rhs),rhsMax =   6.07874861557889E-13  5.10466548063333E-01
 cg2d: Sum(rhs),rhsMax =   3.46514483773319E-13  5.10501115913475E-01
 cg2d: Sum(rhs),rhsMax =  -3.47333273253980E-13  5.10533253647945E-01
 cg2d: Sum(rhs),rhsMax =  -2.50480192143243E-13  5.10562513517318E-01
 cg2d: Sum(rhs),rhsMax =   1.90139570754866E-13  5.10588525428193E-01
 cg2d: Sum(rhs),rhsMax =   2.11455852827669E-13  5.10610971571467E-01
 cg2d: Sum(rhs),rhsMax =   2.22308282893380E-13  5.10629611577447E-01
 cg2d: Sum(rhs),rhsMax =   2.65204525007334E-14  5.10644290467774E-01
 cg2d: Sum(rhs),rhsMax =   2.88394308434192E-13  5.10654915503146E-01
 cg2d: Sum(rhs),rhsMax =  -4.88914464469303E-14  5.10661526885077E-01
 cg2d: Sum(rhs),rhsMax =   9.22456555585427E-14  5.10664236461098E-01
 cg2d: Sum(rhs),rhsMax =  -4.62463400907609E-13  5.10663212987991E-01
 cg2d: Sum(rhs),rhsMax =   1.02071129326475E-13  5.10658777841075E-01
 cg2d: Sum(rhs),rhsMax =   2.76320633041394E-13  5.10650208197697E-01
 cg2d: Sum(rhs),rhsMax =  -5.98132654516803E-14  5.10637368853277E-01
 cg2d: Sum(rhs),rhsMax =   1.15199516592668E-13  5.10620690201804E-01
 cg2d: Sum(rhs),rhsMax =   2.70422573223073E-13  5.10600747419268E-01
 cg2d: Sum(rhs),rhsMax =   1.68878799833294E-13  5.10578180329507E-01
 cg2d: Sum(rhs),rhsMax =   6.92501611609941E-15  5.10553665026571E-01
 cg2d: Sum(rhs),rhsMax =   7.12485626053194E-14  5.10527930721924E-01
 cg2d: Sum(rhs),rhsMax =  -1.22207799435614E-13  5.10501725288538E-01
 cg2d: Sum(rhs),rhsMax =   1.21319621015914E-13  5.10475806401588E-01
 cg2d: Sum(rhs),rhsMax =  -7.02493618831568E-14  5.10450884175550E-01
 cg2d: Sum(rhs),rhsMax =   2.48578935213573E-13  5.10427652637929E-01
 cg2d: Sum(rhs),rhsMax =  -2.91641710781221E-13  5.10406732611649E-01
 cg2d: Sum(rhs),rhsMax =   9.99061944284563E-14  5.10388670575817E-01
 cg2d: Sum(rhs),rhsMax =   2.04766759104302E-13  5.10373915260697E-01
 cg2d: Sum(rhs),rhsMax =   2.77555756156289E-16  5.10362827463165E-01
 cg2d: Sum(rhs),rhsMax =  -2.28983498828939E-14  5.10355631406440E-01
 cg2d: Sum(rhs),rhsMax =   5.85212434067728E-13  5.10352413261467E-01
 cg2d: Sum(rhs),rhsMax =  -6.11038997178071E-14  5.10364771578034E-01
 cg2d: Sum(rhs),rhsMax =   8.35720381786587E-14  5.10386900200345E-01
 cg2d: Sum(rhs),rhsMax =   1.26107457809610E-13  5.10407446280618E-01
 cg2d: Sum(rhs),rhsMax =  -2.97123436965308E-14  5.10426506207510E-01
 cg2d: Sum(rhs),rhsMax =   2.98802649290053E-13  5.10444192710940E-01
 cg2d: Sum(rhs),rhsMax =  -4.84653983612304E-13  5.10460634598231E-01
 cg2d: Sum(rhs),rhsMax =   1.77358128183869E-13  5.10475988268592E-01
 cg2d: Sum(rhs),rhsMax =  -1.28758115280903E-13  5.10490415241040E-01
 cg2d: Sum(rhs),rhsMax =  -1.08371644991223E-13  5.10504089170678E-01
 cg2d: Sum(rhs),rhsMax =  -2.89560042610049E-13  5.10517191659469E-01
 cg2d: Sum(rhs),rhsMax =   4.34111080416244E-13  5.10529893370969E-01
 cg2d: Sum(rhs),rhsMax =   1.38722366926913E-13  5.10542384908394E-01
 cg2d: Sum(rhs),rhsMax =  -1.28980159885828E-13  5.10559553608570E-01
 cg2d: Sum(rhs),rhsMax =   2.55823140449252E-13  5.10580919491077E-01
 cg2d: Sum(rhs),rhsMax =  -1.38694611351298E-13  5.10602489226327E-01
 cg2d: Sum(rhs),rhsMax =   5.06122921350993E-13  5.10624314310883E-01
 cg2d: Sum(rhs),rhsMax =  -3.24740234702858E-14  5.10647758149746E-01
 cg2d: Sum(rhs),rhsMax =  -4.66113259101064E-13  5.10671631907586E-01
 cg2d: Sum(rhs),rhsMax =   1.03431152531641E-13  5.10695956461533E-01
 cg2d: Sum(rhs),rhsMax =  -2.18075557611996E-13  5.10720777648285E-01
 cg2d: Sum(rhs),rhsMax =   9.71583924425090E-14  5.10746056888448E-01
 cg2d: Sum(rhs),rhsMax =   2.37310171513627E-13  5.10771787037559E-01
 cg2d: Sum(rhs),rhsMax =  -1.47798440153224E-14  5.10797921935877E-01
 cg2d: Sum(rhs),rhsMax =   8.56814619254465E-14  5.10824368005398E-01
 cg2d: Sum(rhs),rhsMax =  -3.55146467789780E-13  5.10851035751588E-01
 cg2d: Sum(rhs),rhsMax =  -1.11188835916209E-13  5.10877812432525E-01
 cg2d: Sum(rhs),rhsMax =   1.37417854872979E-13  5.10904565561217E-01
 cg2d: Sum(rhs),rhsMax =   2.83537082701457E-13  5.10931157339088E-01
 cg2d: Sum(rhs),rhsMax =  -5.06802932953576E-13  5.10957437450656E-01
 cg2d: Sum(rhs),rhsMax =  -6.77236045021345E-15  5.10983388067355E-01
 cg2d: Sum(rhs),rhsMax =   3.38673533661904E-13  5.11009119483948E-01
 cg2d: Sum(rhs),rhsMax =   4.24729695858161E-13  5.11033971925795E-01
 cg2d: Sum(rhs),rhsMax =   1.45716771982052E-14  5.11057819623834E-01
 cg2d: Sum(rhs),rhsMax =  -5.09176034668712E-14  5.11080388978117E-01
 cg2d: Sum(rhs),rhsMax =   5.34836064325361E-13  5.11101881707896E-01
 cg2d: Sum(rhs),rhsMax =  -3.56659146660832E-13  5.11121746008023E-01
 cg2d: Sum(rhs),rhsMax =  -3.24615334612588E-13  5.11139945205706E-01
 cg2d: Sum(rhs),rhsMax =  -3.35426131314875E-14  5.11156438694336E-01
 cg2d: Sum(rhs),rhsMax =  -3.64611119074709E-13  5.11171193202238E-01
 cg2d: Sum(rhs),rhsMax =  -5.60940183191860E-14  5.11184223181718E-01
 cg2d: Sum(rhs),rhsMax =   2.18838835941426E-13  5.11195547114482E-01
 cg2d: Sum(rhs),rhsMax =  -1.78468351208494E-13  5.11205232661704E-01
 cg2d: Sum(rhs),rhsMax =  -3.31817906484844E-14  5.11213358791599E-01
 cg2d: Sum(rhs),rhsMax =  -4.73787675758786E-14  5.11220036544044E-01
 cg2d: Sum(rhs),rhsMax =  -3.76726427830931E-13  5.11225397344367E-01
 cg2d: Sum(rhs),rhsMax =   2.79873346720194E-13  5.11229588723884E-01
 cg2d: Sum(rhs),rhsMax =  -1.93511873192165E-13  5.11232769998201E-01
 cg2d: Sum(rhs),rhsMax =   3.25933724454330E-13  5.11235118235351E-01
 cg2d: Sum(rhs),rhsMax =  -1.47493128821452E-13  5.11236790566021E-01
 cg2d: Sum(rhs),rhsMax =  -1.79925518928314E-13  5.11237971285350E-01
 cg2d: Sum(rhs),rhsMax =  -9.73804370474340E-14  5.11238843080960E-01
 cg2d: Sum(rhs),rhsMax =   1.88654647459430E-13  5.11239691641953E-01
 cg2d: Sum(rhs),rhsMax =  -2.31384356119690E-13  5.11240573744583E-01
 cg2d: Sum(rhs),rhsMax =   2.71477285096466E-13  5.11241630462975E-01
 cg2d: Sum(rhs),rhsMax =   3.73381880969248E-13  5.11242994052823E-01
 cg2d: Sum(rhs),rhsMax =   4.81142903296927E-14  5.11244769958945E-01
 cg2d: Sum(rhs),rhsMax =   2.10512163256737E-13  5.11247060629435E-01
 cg2d: Sum(rhs),rhsMax =   7.29971638691040E-15  5.11249925384615E-01
 cg2d: Sum(rhs),rhsMax =  -2.16979212375179E-13  5.11253396493599E-01
 cg2d: Sum(rhs),rhsMax =   2.40779618465581E-13  5.11257481553338E-01
 cg2d: Sum(rhs),rhsMax =   1.84172121997506E-13  5.11262175081201E-01
 cg2d: Sum(rhs),rhsMax =   1.38708489139105E-13  5.11267423907785E-01
 cg2d: Sum(rhs),rhsMax =  -2.56308863022525E-13  5.11273164960650E-01
 cg2d: Sum(rhs),rhsMax =  -2.38031816479634E-13  5.11279319365012E-01
 cg2d: Sum(rhs),rhsMax =  -2.38892239323718E-13  5.11285790626424E-01
 cg2d: Sum(rhs),rhsMax =   1.77136083578944E-13  5.11292484854356E-01
 cg2d: Sum(rhs),rhsMax =   3.06879521794201E-13  5.11299274738437E-01
 cg2d: Sum(rhs),rhsMax =   3.78475029094716E-13  5.11306002906349E-01
 cg2d: Sum(rhs),rhsMax =   3.72438191398317E-13  5.11312535698826E-01
 cg2d: Sum(rhs),rhsMax =   2.11858308674095E-13  5.11318738281004E-01
 cg2d: Sum(rhs),rhsMax =   2.31759056390501E-13  5.11324488125966E-01
 cg2d: Sum(rhs),rhsMax =  -4.31904512154802E-13  5.11329662460731E-01
 cg2d: Sum(rhs),rhsMax =  -2.70353184284033E-13  5.11334172768010E-01
 cg2d: Sum(rhs),rhsMax =  -2.20601314993019E-13  5.11337877693753E-01
 cg2d: Sum(rhs),rhsMax =  -1.10356168647741E-13  5.11340765540093E-01
 cg2d: Sum(rhs),rhsMax =  -2.07542316665865E-13  5.11342735678489E-01
 cg2d: Sum(rhs),rhsMax =  -1.19390608510628E-13  5.11343749323334E-01
 cg2d: Sum(rhs),rhsMax =   2.26277330206415E-13  5.11343792975066E-01
 cg2d: Sum(rhs),rhsMax =  -1.05582209641852E-13  5.11342852689021E-01
 cg2d: Sum(rhs),rhsMax =   1.34448008282106E-13  5.11323109538526E-01
 cg2d: Sum(rhs),rhsMax =   4.26145230214559E-13  5.11225597300965E-01
 cg2d: Sum(rhs),rhsMax =  -3.86829457355020E-13  5.11126094971946E-01
 cg2d: Sum(rhs),rhsMax =   2.72087907760010E-13  5.11026692996291E-01
 cg2d: Sum(rhs),rhsMax =  -3.41102146528272E-13  5.10926587664399E-01
 cg2d: Sum(rhs),rhsMax =   7.11930514540882E-15  5.10826026382075E-01
 cg2d: Sum(rhs),rhsMax =  -7.86870568703080E-15  5.10725094339233E-01
 cg2d: Sum(rhs),rhsMax =   9.55069356933791E-14  5.10623858942872E-01
 cg2d: Sum(rhs),rhsMax =   1.58192903221277E-13  5.10522405023695E-01
 cg2d: Sum(rhs),rhsMax =   2.23557283796083E-13  5.10420947080503E-01
 cg2d: Sum(rhs),rhsMax =   5.69266855876549E-13  5.10319538358577E-01
 cg2d: Sum(rhs),rhsMax =  -2.20906626324791E-13  5.10218237886015E-01
 cg2d: Sum(rhs),rhsMax =   2.00436889308264E-13  5.10117091840035E-01
 cg2d: Sum(rhs),rhsMax =  -2.67855182478627E-13  5.10014913036318E-01
 cg2d: Sum(rhs),rhsMax =   3.01869640395580E-13  5.10022908670848E-01
 cg2d: Sum(rhs),rhsMax =  -3.29458682557515E-14  5.10040666213773E-01
 cg2d: Sum(rhs),rhsMax =  -1.99507077525141E-13  5.10053452201038E-01
 cg2d: Sum(rhs),rhsMax =  -2.07722727907367E-13  5.10061227063015E-01
 cg2d: Sum(rhs),rhsMax =  -1.07733266752064E-13  5.10064145086660E-01
 cg2d: Sum(rhs),rhsMax =   1.81743509131138E-13  5.10062438892716E-01
 cg2d: Sum(rhs),rhsMax =   5.58400548023030E-13  5.10056505765529E-01
 cg2d: Sum(rhs),rhsMax =  -3.93338139836885E-13  5.10046888214004E-01
 cg2d: Sum(rhs),rhsMax =   1.89334659062013E-13  5.10034259505076E-01
 cg2d: Sum(rhs),rhsMax =   2.52242671194836E-13  5.10019362373971E-01
 cg2d: Sum(rhs),rhsMax =   6.41015018842950E-14  5.10003045012156E-01
 cg2d: Sum(rhs),rhsMax =   1.88640769671622E-13  5.09986193342397E-01
 cg2d: Sum(rhs),rhsMax =   1.06456510273745E-13  5.09969655442129E-01
 cg2d: Sum(rhs),rhsMax =  -9.91290383112187E-14  5.09954386653526E-01
 cg2d: Sum(rhs),rhsMax =   1.04152797497647E-13  5.09941289399223E-01
 cg2d: Sum(rhs),rhsMax =  -1.15268905531707E-13  5.09931235048489E-01
 cg2d: Sum(rhs),rhsMax =   1.12271303365219E-14  5.09925048573542E-01
 cg2d: Sum(rhs),rhsMax =   1.27342580924505E-13  5.09923447093202E-01
 cg2d: Sum(rhs),rhsMax =   2.51465515077598E-13  5.09927041492872E-01
 cg2d: Sum(rhs),rhsMax =  -1.43537959296225E-13  5.09936314951127E-01
 cg2d: Sum(rhs),rhsMax =  -2.17714735128993E-13  5.09951619644413E-01
 cg2d: Sum(rhs),rhsMax =   2.56974996837300E-13  5.09973163293380E-01
 cg2d: Sum(rhs),rhsMax =   1.94344540460634E-13  5.10000994518245E-01
 cg2d: Sum(rhs),rhsMax =  -8.27532486979976E-14  5.10035030005546E-01
 cg2d: Sum(rhs),rhsMax =  -6.80844269851377E-14  5.10075004112479E-01
 cg2d: Sum(rhs),rhsMax =   9.66726698692355E-14  5.10120529321303E-01
 cg2d: Sum(rhs),rhsMax =  -2.53477794309731E-13  5.10171074483489E-01
 cg2d: Sum(rhs),rhsMax =   1.03056452260830E-13  5.10225992064439E-01
 cg2d: Sum(rhs),rhsMax =  -2.38628561355370E-13  5.10284491863049E-01
 cg2d: Sum(rhs),rhsMax =  -3.92644250446494E-13  5.10345731690366E-01
 cg2d: Sum(rhs),rhsMax =   6.88241130752942E-13  5.10408783511960E-01
 cg2d: Sum(rhs),rhsMax =   1.34448008282106E-13  5.10472729180974E-01
 cg2d: Sum(rhs),rhsMax =  -1.48728251936348E-13  5.10536635521889E-01
 cg2d: Sum(rhs),rhsMax =  -2.97539770599542E-13  5.10599591647197E-01
 cg2d: Sum(rhs),rhsMax =   1.99340544071447E-13  5.10660726962840E-01
 cg2d: Sum(rhs),rhsMax =   3.77545217311592E-13  5.10718987223073E-01
 cg2d: Sum(rhs),rhsMax =  -2.98205904414317E-13  5.10773890599261E-01
 cg2d: Sum(rhs),rhsMax =  -1.24761312392252E-13  5.10825086627729E-01
 cg2d: Sum(rhs),rhsMax =  -2.39391839684799E-14  5.10871803925511E-01
 cg2d: Sum(rhs),rhsMax =   1.08038578083836E-13  5.10913680809849E-01
 cg2d: Sum(rhs),rhsMax =   7.61890550649014E-15  5.10950469461842E-01
 cg2d: Sum(rhs),rhsMax =  -6.20503648463000E-13  5.10982096514496E-01
 cg2d: Sum(rhs),rhsMax =  -1.40276679161389E-13  5.11008634693471E-01
 cg2d: Sum(rhs),rhsMax =  -6.58917365115030E-14  5.11030306217184E-01
 cg2d: Sum(rhs),rhsMax =  -7.87842013849627E-14  5.11047473867676E-01
 cg2d: Sum(rhs),rhsMax =  -1.46618828189560E-13  5.11060635815873E-01
 cg2d: Sum(rhs),rhsMax =  -2.79207212905419E-13  5.11070422039386E-01
 cg2d: Sum(rhs),rhsMax =   3.39145378447370E-13  5.11077570350126E-01
 cg2d: Sum(rhs),rhsMax =   8.72912853111529E-14  5.11082911700739E-01
 cg2d: Sum(rhs),rhsMax =   2.11913819825327E-13  5.11087355702598E-01
 cg2d: Sum(rhs),rhsMax =   2.15785722623707E-13  5.11091813075265E-01
 cg2d: Sum(rhs),rhsMax =   9.80465708622091E-14  5.11097304590217E-01
 cg2d: Sum(rhs),rhsMax =   2.18283724429114E-13  5.11104755740072E-01
 cg2d: Sum(rhs),rhsMax =   2.43499664875912E-13  5.11115112943321E-01
 cg2d: Sum(rhs),rhsMax =  -2.31675789663655E-13  5.11129244283953E-01
 cg2d: Sum(rhs),rhsMax =   1.37820310719405E-13  5.11147954136070E-01
 cg2d: Sum(rhs),rhsMax =   6.92779167366098E-14  5.11171950421749E-01
 cg2d: Sum(rhs),rhsMax =   7.37188088351104E-14  5.11201841808625E-01
 cg2d: Sum(rhs),rhsMax =  -3.04201108747293E-14  5.11238099120692E-01
 cg2d: Sum(rhs),rhsMax =   7.64249774576342E-14  5.11281045634245E-01
 cg2d: Sum(rhs),rhsMax =   2.52631249253454E-13  5.11330830746078E-01
 cg2d: Sum(rhs),rhsMax =  -1.44148581959769E-13  5.11387472405434E-01
 cg2d: Sum(rhs),rhsMax =   2.59736676611055E-13  5.11450835566731E-01
 cg2d: Sum(rhs),rhsMax =   1.94080862492285E-13  5.11520636102777E-01
 cg2d: Sum(rhs),rhsMax =   3.14567816239730E-13  5.11596432007799E-01
 cg2d: Sum(rhs),rhsMax =   2.05585548584963E-13  5.11677624235113E-01
 cg2d: Sum(rhs),rhsMax =  -7.43710648620777E-14  5.11763511508276E-01
 cg2d: Sum(rhs),rhsMax =  -2.11539119554516E-13  5.11853241196859E-01
 cg2d: Sum(rhs),rhsMax =   3.67358921060656E-13  5.11945939252982E-01
 cg2d: Sum(rhs),rhsMax =  -5.93552984540224E-14  5.12040679790492E-01
 cg2d: Sum(rhs),rhsMax =   5.47895062652515E-13  5.12136511333513E-01
 cg2d: Sum(rhs),rhsMax =   3.79474229816879E-13  5.12232483302991E-01
 cg2d: Sum(rhs),rhsMax =  -3.02161073939544E-13  5.12327660824381E-01
 cg2d: Sum(rhs),rhsMax =  -2.99205105136480E-14  5.12421169952259E-01
 cg2d: Sum(rhs),rhsMax =   4.60464999463284E-14  5.12512165218460E-01
 cg2d: Sum(rhs),rhsMax =  -2.38781217021256E-13  5.12599912164052E-01
 cg2d: Sum(rhs),rhsMax =  -6.43235464892200E-14  5.12683395196112E-01
 cg2d: Sum(rhs),rhsMax =   4.56648607816135E-13  5.12762500192975E-01
 cg2d: Sum(rhs),rhsMax =   2.13731810028150E-13  5.12836858424952E-01
 cg2d: Sum(rhs),rhsMax =   4.73718286819746E-13  5.12905832032709E-01
 cg2d: Sum(rhs),rhsMax =   2.80608869474008E-14  5.12969293345447E-01
 cg2d: Sum(rhs),rhsMax =   6.39904795818325E-14  5.13027447975623E-01
 cg2d: Sum(rhs),rhsMax =  -7.42877981352308E-14  5.13080632816434E-01
 cg2d: Sum(rhs),rhsMax =   1.52003409858992E-13  5.13129328237889E-01
 cg2d: Sum(rhs),rhsMax =   2.80331313717852E-14  5.13174100292561E-01
 cg2d: Sum(rhs),rhsMax =  -2.80470091595930E-14  5.13215658865244E-01
 cg2d: Sum(rhs),rhsMax =   2.62012633811537E-14  5.13254819157129E-01
 cg2d: Sum(rhs),rhsMax =  -2.48773224242882E-13  5.13292483805795E-01
 cg2d: Sum(rhs),rhsMax =  -1.04194430861071E-13  5.13313985713573E-01
 cg2d: Sum(rhs),rhsMax =  -1.69683711526147E-13  5.13335850751804E-01
 cg2d: Sum(rhs),rhsMax =  -2.04294914318837E-13  5.13359173868049E-01
 cg2d: Sum(rhs),rhsMax =  -1.00849883999388E-13  5.13384957073885E-01
 cg2d: Sum(rhs),rhsMax =   3.27224358720457E-13  5.13414195944549E-01
 cg2d: Sum(rhs),rhsMax =   6.35741459475980E-14  5.13447698389033E-01
 cg2d: Sum(rhs),rhsMax =   8.67778071622638E-14  5.13486260966687E-01
 cg2d: Sum(rhs),rhsMax =   1.70433112067769E-13  5.13530488916627E-01
 cg2d: Sum(rhs),rhsMax =  -2.67258437602891E-13  5.13580866023104E-01
 cg2d: Sum(rhs),rhsMax =   2.52020626589911E-14  5.13637694942005E-01
 cg2d: Sum(rhs),rhsMax =   1.35766398123849E-13  5.13701135669685E-01
 cg2d: Sum(rhs),rhsMax =   1.27162169683004E-13  5.13769001817077E-01
 cg2d: Sum(rhs),rhsMax =   1.22776788735734E-13  5.13841595547267E-01
 cg2d: Sum(rhs),rhsMax =   2.52173282255796E-13  5.13921608329673E-01
 cg2d: Sum(rhs),rhsMax =   2.18297602216921E-14  5.14006940436049E-01
 cg2d: Sum(rhs),rhsMax =   1.17142406885762E-13  5.14096444394157E-01
 cg2d: Sum(rhs),rhsMax =  -7.48567874353512E-14  5.14191563979890E-01
 cg2d: Sum(rhs),rhsMax =  -2.93862156830471E-13  5.14287370015487E-01
 cg2d: Sum(rhs),rhsMax =  -2.43596809390567E-13  5.14386204525417E-01
 cg2d: Sum(rhs),rhsMax =   2.41764941399936E-13  5.14487062005741E-01
 cg2d: Sum(rhs),rhsMax =   6.07555672438309E-13  5.14589153887618E-01
 cg2d: Sum(rhs),rhsMax =  -1.97911131927242E-13  5.14691524992751E-01
 cg2d: Sum(rhs),rhsMax =   8.04911692853238E-16  5.14792892833947E-01
 cg2d: Sum(rhs),rhsMax =  -1.28952404310212E-13  5.14891960033269E-01
 cg2d: Sum(rhs),rhsMax =  -2.21545004563950E-13  5.14987966082719E-01
 cg2d: Sum(rhs),rhsMax =  -2.12704853730372E-13  5.15080229995607E-01
 cg2d: Sum(rhs),rhsMax =  -4.07257561008123E-13  5.15168113221025E-01
 cg2d: Sum(rhs),rhsMax =   2.70714006767037E-13  5.15251140524278E-01
 cg2d: Sum(rhs),rhsMax =   3.91214838302290E-14  5.15328968085083E-01
 cg2d: Sum(rhs),rhsMax =  -1.67851843535516E-13  5.15401399311920E-01
 cg2d: Sum(rhs),rhsMax =   9.66171587180042E-14  5.15468376661710E-01
 cg2d: Sum(rhs),rhsMax =   2.56655807717721E-13  5.15530032393739E-01
 cg2d: Sum(rhs),rhsMax =  -7.63139551551717E-14  5.15586603053569E-01
 cg2d: Sum(rhs),rhsMax =   2.92058044415455E-13  5.15638526698739E-01
 cg2d: Sum(rhs),rhsMax =  -4.01956246065538E-13  5.15686342002893E-01
 cg2d: Sum(rhs),rhsMax =   1.22263310586845E-13  5.15730746723425E-01
 cg2d: Sum(rhs),rhsMax =   4.77715089708397E-13  5.15772472434494E-01
 cg2d: Sum(rhs),rhsMax =  -4.07590627915511E-13  5.15812362361857E-01
 cg2d: Sum(rhs),rhsMax =  -1.66769376086506E-13  5.15851334803037E-01
 cg2d: Sum(rhs),rhsMax =   1.02848285443713E-13  5.15890310095729E-01
 cg2d: Sum(rhs),rhsMax =  -1.99146255042137E-14  5.15930282638214E-01
 cg2d: Sum(rhs),rhsMax =   4.47142323167782E-14  5.15972141173048E-01
 cg2d: Sum(rhs),rhsMax =   6.12426775958852E-14  5.16016799809971E-01
 cg2d: Sum(rhs),rhsMax =   1.17614251671228E-13  5.16065075032875E-01
 cg2d: Sum(rhs),rhsMax =   1.70641278884887E-13  5.16117700438590E-01
 cg2d: Sum(rhs),rhsMax =  -2.00561789398535E-13  5.16175365693138E-01
 cg2d: Sum(rhs),rhsMax =  -2.30232499731642E-14  5.16238652033318E-01
 cg2d: Sum(rhs),rhsMax =   2.60763632908834E-14  5.16307794241901E-01
 cg2d: Sum(rhs),rhsMax =  -1.77746706242488E-13  5.16383132428412E-01
 cg2d: Sum(rhs),rhsMax =   6.57390808456171E-14  5.16464604301836E-01
 cg2d: Sum(rhs),rhsMax =   4.16930379110170E-13  5.16552102461615E-01
 cg2d: Sum(rhs),rhsMax =  -1.71487823941163E-13  5.16645361020931E-01
 cg2d: Sum(rhs),rhsMax =  -1.56388790806261E-13  5.16743932338310E-01
 cg2d: Sum(rhs),rhsMax =   6.84632905922911E-13  5.16847257548730E-01
 cg2d: Sum(rhs),rhsMax =   2.56836218959222E-13  5.16954743742066E-01
 cg2d: Sum(rhs),rhsMax =   1.82243109492219E-13  5.17065619402820E-01
 cg2d: Sum(rhs),rhsMax =  -4.32015534457264E-14  5.17179267676973E-01
 cg2d: Sum(rhs),rhsMax =  -4.14682177485304E-13  5.17294527620119E-01
 cg2d: Sum(rhs),rhsMax =  -5.82034420659738E-14  5.17410536945231E-01
 cg2d: Sum(rhs),rhsMax =  -1.95260474455949E-13  5.17526367528310E-01
 cg2d: Sum(rhs),rhsMax =   1.25191523814294E-13  5.17641103658948E-01
 cg2d: Sum(rhs),rhsMax =  -1.32241440020664E-13  5.17753865818549E-01
 cg2d: Sum(rhs),rhsMax =  -3.00023894617141E-13  5.17863886709967E-01
 cg2d: Sum(rhs),rhsMax =  -6.53366249991905E-14  5.17970291502104E-01
 cg2d: Sum(rhs),rhsMax =  -1.54237733696050E-13  5.18072535353656E-01
 cg2d: Sum(rhs),rhsMax =   2.23807083976624E-13  5.18170191610490E-01
 cg2d: Sum(rhs),rhsMax =   7.18314296932476E-14  5.18262802099402E-01
 cg2d: Sum(rhs),rhsMax =  -2.15161222172355E-13  5.18350109634412E-01
 cg2d: Sum(rhs),rhsMax =  -2.96540569877379E-13  5.18432073636789E-01
 cg2d: Sum(rhs),rhsMax =   2.12829753820643E-13  5.18508695257395E-01
 cg2d: Sum(rhs),rhsMax =  -1.06317732395667E-13  5.18580180656908E-01
 cg2d: Sum(rhs),rhsMax =  -1.50782164531904E-13  5.18646876871226E-01
 cg2d: Sum(rhs),rhsMax =  -4.45671277660153E-13  5.18709268510126E-01
 cg2d: Sum(rhs),rhsMax =   2.32383556841853E-13  5.18767959768238E-01
 cg2d: Sum(rhs),rhsMax =  -6.74182931703626E-14  5.18823663244482E-01
 cg2d: Sum(rhs),rhsMax =  -1.19737553205823E-13  5.18877129697380E-01
 cg2d: Sum(rhs),rhsMax =   3.96044308459409E-13  5.18929217628636E-01
 cg2d: Sum(rhs),rhsMax =  -1.45813916496706E-13  5.18980835708567E-01
 cg2d: Sum(rhs),rhsMax =   4.01817468187460E-13  5.19032912448798E-01
 cg2d: Sum(rhs),rhsMax =   1.52461376856650E-13  5.19086369739245E-01
 cg2d: Sum(rhs),rhsMax =   2.60930166362527E-13  5.19142327077226E-01
 cg2d: Sum(rhs),rhsMax =   2.44138043115072E-13  5.19201374320724E-01
 cg2d: Sum(rhs),rhsMax =  -2.25958141086835E-13  5.19264268116870E-01
 cg2d: Sum(rhs),rhsMax =  -4.02441968638811E-13  5.19331720451117E-01
 cg2d: Sum(rhs),rhsMax =  -1.50018886202474E-13  5.19404278683050E-01
 cg2d: Sum(rhs),rhsMax =  -2.21628271290797E-13  5.19482351188020E-01
 cg2d: Sum(rhs),rhsMax =   5.95787308377282E-13  5.19566217051363E-01
 cg2d: Sum(rhs),rhsMax =   1.06512021424976E-13  5.19656122348645E-01
 cg2d: Sum(rhs),rhsMax =  -5.21360732363974E-13  5.19752026790398E-01
 cg2d: Sum(rhs),rhsMax =  -1.09107167745037E-13  5.19853681704942E-01
 cg2d: Sum(rhs),rhsMax =  -1.97675209534509E-13  5.19954468718704E-01
 cg2d: Sum(rhs),rhsMax =   4.76563233320348E-13  5.20060058990679E-01
 cg2d: Sum(rhs),rhsMax =  -1.43413059205955E-13  5.20170066742030E-01
 cg2d: Sum(rhs),rhsMax =   4.09672296086683E-14  5.20283845699205E-01
 cg2d: Sum(rhs),rhsMax =  -2.28692065284974E-13  5.20400641068286E-01
 cg2d: Sum(rhs),rhsMax =  -1.09356967925578E-13  5.20519633845798E-01
 cg2d: Sum(rhs),rhsMax =   4.19039802856958E-13  5.20639959723426E-01
 cg2d: Sum(rhs),rhsMax =  -2.92793567169269E-13  5.20760781041265E-01
 cg2d: Sum(rhs),rhsMax =  -1.36612943180126E-13  5.20881376881663E-01
 cg2d: Sum(rhs),rhsMax =  -4.27713420236842E-14  5.21000580875162E-01
 cg2d: Sum(rhs),rhsMax =  -6.80122624885371E-13  5.21117611408611E-01
 cg2d: Sum(rhs),rhsMax =  -7.98250354705488E-14  5.21231710733674E-01
 cg2d: Sum(rhs),rhsMax =  -4.44644321362375E-14  5.21342326980754E-01
 cg2d: Sum(rhs),rhsMax =  -1.10036979528161E-13  5.21449017177863E-01
 cg2d: Sum(rhs),rhsMax =   5.26106935794246E-14  5.21551444985011E-01
 cg2d: Sum(rhs),rhsMax =  -1.22124532708767E-14  5.21649315158376E-01
 cg2d: Sum(rhs),rhsMax =  -1.38902778168415E-13  5.21742366793612E-01
 cg2d: Sum(rhs),rhsMax =   1.93317584162855E-13  5.21830594029565E-01
 cg2d: Sum(rhs),rhsMax =   3.63181706930504E-14  5.21914166420487E-01
 cg2d: Sum(rhs),rhsMax =   2.63220001350817E-13  5.21993328819781E-01
 cg2d: Sum(rhs),rhsMax =   2.11552997342324E-13  5.22068506748323E-01
 cg2d: Sum(rhs),rhsMax =  -2.90586998907827E-13  5.22140227454243E-01
 cg2d: Sum(rhs),rhsMax =  -1.41553435639707E-15  5.22209144732024E-01
 cg2d: Sum(rhs),rhsMax =   2.03601024928446E-13  5.22275975129747E-01
 cg2d: Sum(rhs),rhsMax =   8.50847170497104E-14  5.22341509892264E-01
 cg2d: Sum(rhs),rhsMax =  -5.99659211175663E-14  5.22406547432512E-01
 cg2d: Sum(rhs),rhsMax =  -7.62306884283248E-14  5.22472173022506E-01
 cg2d: Sum(rhs),rhsMax =   2.15050199869893E-13  5.22539131540030E-01
 cg2d: Sum(rhs),rhsMax =   1.30367938666609E-13  5.22608181264285E-01
 cg2d: Sum(rhs),rhsMax =  -3.77059494738319E-14  5.22680223726792E-01
 cg2d: Sum(rhs),rhsMax =  -2.48509546274533E-13  5.22755984825639E-01
 cg2d: Sum(rhs),rhsMax =  -1.18183240971348E-13  5.22836143200758E-01
 cg2d: Sum(rhs),rhsMax =   2.68132738234783E-13  5.22921219302582E-01
 cg2d: Sum(rhs),rhsMax =   1.36432531938624E-13  5.23011638821307E-01
 cg2d: Sum(rhs),rhsMax =  -8.95672425116345E-14  5.23107668756113E-01
 cg2d: Sum(rhs),rhsMax =  -3.11167758226816E-13  5.23209432758434E-01
 cg2d: Sum(rhs),rhsMax =   1.05138120432002E-13  5.23316879316777E-01
 cg2d: Sum(rhs),rhsMax =   3.84414722276460E-15  5.23429798079545E-01
 cg2d: Sum(rhs),rhsMax =  -3.54272167157887E-13  5.23547878602249E-01
 cg2d: Sum(rhs),rhsMax =  -1.38694611351298E-13  5.23670689732358E-01
 cg2d: Sum(rhs),rhsMax =  -1.25108257087447E-13  5.23797594537935E-01
 cg2d: Sum(rhs),rhsMax =  -9.75469705011278E-14  5.23928006912978E-01
 cg2d: Sum(rhs),rhsMax =  -1.02612363050980E-13  5.24061084661668E-01
 cg2d: Sum(rhs),rhsMax =  -1.30687127786189E-13  5.24196080164424E-01
 cg2d: Sum(rhs),rhsMax =   3.50761086842510E-13  5.24332041461395E-01
 cg2d: Sum(rhs),rhsMax =   3.50330875420468E-13  5.24468157162475E-01
 cg2d: Sum(rhs),rhsMax =   1.13173359572727E-13  5.24603488146579E-01
 cg2d: Sum(rhs),rhsMax =  -1.27980959163665E-13  5.24737292151680E-01
 cg2d: Sum(rhs),rhsMax =   8.33361157859258E-14  5.24868490491929E-01
 cg2d: Sum(rhs),rhsMax =  -6.14785999886180E-15  5.24996404158088E-01
 cg2d: Sum(rhs),rhsMax =  -1.77274861457022E-13  5.25120494295035E-01
 cg2d: Sum(rhs),rhsMax =  -1.70433112067769E-13  5.25240400353720E-01
 cg2d: Sum(rhs),rhsMax =   8.34332603005805E-14  5.25355743182940E-01
 cg2d: Sum(rhs),rhsMax =  -2.20878870749175E-13  5.25466370418579E-01
 cg2d: Sum(rhs),rhsMax =  -1.91513471747840E-14  5.25572211206549E-01
 cg2d: Sum(rhs),rhsMax =   1.44537160018388E-13  5.25673062632732E-01
 cg2d: Sum(rhs),rhsMax =   1.43357548054723E-14  5.25769005129986E-01
 cg2d: Sum(rhs),rhsMax =  -3.69329566929366E-13  5.25860424282826E-01
 cg2d: Sum(rhs),rhsMax =   4.00665611799411E-13  5.25947649680425E-01
 cg2d: Sum(rhs),rhsMax =   7.33996197155307E-14  5.26031302337886E-01
 cg2d: Sum(rhs),rhsMax =   8.79851747015437E-15  5.26111960107864E-01
 cg2d: Sum(rhs),rhsMax =   4.20705137393895E-13  5.26190433721818E-01
 cg2d: Sum(rhs),rhsMax =   1.16254228466062E-13  5.26267470109785E-01
 cg2d: Sum(rhs),rhsMax =   7.85066456288064E-14  5.26343989426959E-01
 cg2d: Sum(rhs),rhsMax =  -2.75543476924156E-13  5.26420804897877E-01
 cg2d: Sum(rhs),rhsMax =  -8.60422844084496E-15  5.26498898170998E-01
 cg2d: Sum(rhs),rhsMax =   1.54293244847281E-13  5.26579255758557E-01
 cg2d: Sum(rhs),rhsMax =   2.27221019777346E-13  5.26662454526320E-01
 cg2d: Sum(rhs),rhsMax =   2.04697370165263E-13  5.26749297486847E-01
 cg2d: Sum(rhs),rhsMax =   2.72670774847938E-13  5.26840548741884E-01
 cg2d: Sum(rhs),rhsMax =  -9.11909436851488E-14  5.26936703873148E-01
 cg2d: Sum(rhs),rhsMax =  -1.52239332251725E-13  5.27038281183736E-01
 cg2d: Sum(rhs),rhsMax =  -1.84394166602431E-13  5.27145490198081E-01
 cg2d: Sum(rhs),rhsMax =  -7.32330862618369E-14  5.27258572440918E-01
 cg2d: Sum(rhs),rhsMax =   1.04277697587918E-13  5.27377402495143E-01
 cg2d: Sum(rhs),rhsMax =  -8.86790640919344E-15  5.27501891828653E-01
 cg2d: Sum(rhs),rhsMax =  -2.40918396343659E-14  5.27631786109016E-01
 cg2d: Sum(rhs),rhsMax =  -1.68004499201402E-13  5.27766595480549E-01
 cg2d: Sum(rhs),rhsMax =   2.38295494447982E-13  5.27905662923774E-01
 cg2d: Sum(rhs),rhsMax =   2.10734207861663E-13  5.28048354656602E-01
 cg2d: Sum(rhs),rhsMax =   2.80456213808122E-13  5.28193812620444E-01
 cg2d: Sum(rhs),rhsMax =  -4.41438552378770E-13  5.28341265194686E-01
 cg2d: Sum(rhs),rhsMax =   3.55840357180170E-13  5.28489678643524E-01
 cg2d: Sum(rhs),rhsMax =  -1.00613961606655E-14  5.28638262913468E-01
 cg2d: Sum(rhs),rhsMax =   2.67202926451660E-13  5.28785945056912E-01
 cg2d: Sum(rhs),rhsMax =  -1.76011982766511E-13  5.28931494874718E-01
 cg2d: Sum(rhs),rhsMax =  -3.15442116871623E-13  5.29074349358478E-01
 cg2d: Sum(rhs),rhsMax =  -2.97414870509272E-13  5.29213762521868E-01
 cg2d: Sum(rhs),rhsMax =   4.87221374356750E-13  5.29349054883659E-01
 cg2d: Sum(rhs),rhsMax =   1.48048240333765E-13  5.29479746901020E-01
 cg2d: Sum(rhs),rhsMax =  -2.16188178470134E-13  5.29605420659166E-01
 cg2d: Sum(rhs),rhsMax =  -2.66453525910038E-14  5.29725871327647E-01
 cg2d: Sum(rhs),rhsMax =   9.88237269794467E-14  5.29840890404802E-01
 cg2d: Sum(rhs),rhsMax =   5.60246293801470E-14  5.29950512882719E-01
 cg2d: Sum(rhs),rhsMax =  -9.82686154671342E-14  5.30054563001288E-01
 cg2d: Sum(rhs),rhsMax =   5.59274848654923E-15  5.30153225435290E-01
 cg2d: Sum(rhs),rhsMax =   1.57235335862538E-13  5.30246816527080E-01
 cg2d: Sum(rhs),rhsMax =   3.33066907387547E-16  5.30335874211734E-01
 cg2d: Sum(rhs),rhsMax =  -3.67011976365461E-13  5.30420977915021E-01
 cg2d: Sum(rhs),rhsMax =  -1.19612653115553E-13  5.30509260303560E-01
 cg2d: Sum(rhs),rhsMax =   3.08308933938406E-13  5.30595425242843E-01
 cg2d: Sum(rhs),rhsMax =   1.80203074684471E-13  5.30680030790847E-01
 cg2d: Sum(rhs),rhsMax =  -9.25787224659302E-14  5.30763951339672E-01
 cg2d: Sum(rhs),rhsMax =   2.41473507855972E-15  5.30848098162526E-01
 cg2d: Sum(rhs),rhsMax =  -5.07427433404928E-13  5.30933355508408E-01
 cg2d: Sum(rhs),rhsMax =   2.26499374811340E-13  5.31020629123166E-01
 cg2d: Sum(rhs),rhsMax =  -1.91791027503996E-14  5.31110678482276E-01
 cg2d: Sum(rhs),rhsMax =   3.35398375739260E-13  5.31204295529382E-01
 cg2d: Sum(rhs),rhsMax =   1.84241510936545E-13  5.31302189264299E-01
 cg2d: Sum(rhs),rhsMax =   4.09200451301217E-13  5.31404867463040E-01
 cg2d: Sum(rhs),rhsMax =   1.64854241369028E-13  5.31512576004673E-01
 cg2d: Sum(rhs),rhsMax =   4.95437024738976E-15  5.31625698295997E-01
 cg2d: Sum(rhs),rhsMax =   1.02876041019329E-13  5.31744298953511E-01
 cg2d: Sum(rhs),rhsMax =  -3.85427800786431E-13  5.31868187350805E-01
 cg2d: Sum(rhs),rhsMax =  -2.29802288309600E-13  5.31996415284380E-01
 cg2d: Sum(rhs),rhsMax =  -2.00256478066763E-13  5.32128937526870E-01
 cg2d: Sum(rhs),rhsMax =   1.84838255812281E-13  5.32265524842639E-01
 cg2d: Sum(rhs),rhsMax =  -2.08194572692832E-13  5.32405894533382E-01
 cg2d: Sum(rhs),rhsMax =   9.77412595304372E-14  5.32549587904779E-01
 cg2d: Sum(rhs),rhsMax =   2.49522624784504E-13  5.32696400363016E-01
 cg2d: Sum(rhs),rhsMax =   9.82131043159029E-14  5.32845091970556E-01
 cg2d: Sum(rhs),rhsMax =  -1.11813336367561E-13  5.32995024156566E-01
 cg2d: Sum(rhs),rhsMax =   1.30825905664267E-13  5.33144933266234E-01
 cg2d: Sum(rhs),rhsMax =   1.95343741182796E-13  5.33293574445152E-01
 cg2d: Sum(rhs),rhsMax =   2.12288520096138E-13  5.33440138560100E-01
 cg2d: Sum(rhs),rhsMax =  -1.46604950401752E-13  5.33583918755754E-01
 cg2d: Sum(rhs),rhsMax =   2.12038719915597E-13  5.33724172541709E-01
 cg2d: Sum(rhs),rhsMax =   2.89074320036775E-14  5.33860350514963E-01
 cg2d: Sum(rhs),rhsMax =  -2.17950657521726E-13  5.33992024986575E-01
 cg2d: Sum(rhs),rhsMax =  -3.26710880571568E-13  5.34118851241482E-01
 cg2d: Sum(rhs),rhsMax =  -3.07157077550357E-13  5.34240587729550E-01
 cg2d: Sum(rhs),rhsMax =   1.47729051214185E-13  5.34357149526454E-01
 cg2d: Sum(rhs),rhsMax =  -2.75349187894847E-13  5.34468555663462E-01
 cg2d: Sum(rhs),rhsMax =   2.11039519193434E-13  5.34574789371791E-01
 cg2d: Sum(rhs),rhsMax =  -1.05720987519931E-13  5.34675775185921E-01
 cg2d: Sum(rhs),rhsMax =  -2.44276820993150E-13  5.34772193812630E-01
 cg2d: Sum(rhs),rhsMax =   5.78287417951628E-14  5.34864117826884E-01
 cg2d: Sum(rhs),rhsMax =  -1.24303345394594E-13  5.34952446014260E-01
 cg2d: Sum(rhs),rhsMax =   2.11705653008210E-13  5.35037836477174E-01
 cg2d: Sum(rhs),rhsMax =  -1.08996145442575E-13  5.35121078240708E-01
 cg2d: Sum(rhs),rhsMax =   1.46452294735866E-13  5.35203000667850E-01
 cg2d: Sum(rhs),rhsMax =  -1.86795023893183E-13  5.35284476964225E-01
 cg2d: Sum(rhs),rhsMax =  -7.16926518151695E-14  5.35366377259675E-01
 cg2d: Sum(rhs),rhsMax =  -5.72042413438112E-14  5.35449558591186E-01
 cg2d: Sum(rhs),rhsMax =   1.69586567011493E-14  5.35534845000889E-01
 cg2d: Sum(rhs),rhsMax =  -1.67796332384285E-13  5.35622972478396E-01
 cg2d: Sum(rhs),rhsMax =  -2.24611995669477E-13  5.35714603208626E-01
 cg2d: Sum(rhs),rhsMax =  -2.76473288707280E-13  5.35810275192042E-01
 cg2d: Sum(rhs),rhsMax =   2.69215205683793E-13  5.35910257613808E-01
 cg2d: Sum(rhs),rhsMax =   4.99503216566666E-13  5.36013622535378E-01
 cg2d: Sum(rhs),rhsMax =   2.86562440443561E-13  5.36120711641281E-01
 cg2d: Sum(rhs),rhsMax =  -1.70322089765307E-13  5.36231735053344E-01
 cg2d: Sum(rhs),rhsMax =  -1.73527858748912E-13  5.36346790485084E-01
 cg2d: Sum(rhs),rhsMax =   3.90271148731358E-13  5.36466013392970E-01
 cg2d: Sum(rhs),rhsMax =   1.65242819427647E-13  5.36589699542658E-01
 cg2d: Sum(rhs),rhsMax =  -2.91544566266566E-13  5.36717263774373E-01
 cg2d: Sum(rhs),rhsMax =  -6.46011022453763E-14  5.36848367567388E-01
 cg2d: Sum(rhs),rhsMax =  -2.12940776123105E-13  5.36982048842674E-01
 cg2d: Sum(rhs),rhsMax =  -9.83102488305576E-14  5.37117778392186E-01
 cg2d: Sum(rhs),rhsMax =   7.31914528984134E-14  5.37255002369856E-01
 cg2d: Sum(rhs),rhsMax =   3.65402152979755E-14  5.37393120305665E-01
 cg2d: Sum(rhs),rhsMax =  -1.12715392575069E-13  5.37531462855251E-01
 cg2d: Sum(rhs),rhsMax =  -5.14130404916102E-13  5.37669491251743E-01
 cg2d: Sum(rhs),rhsMax =   9.71445146547012E-14  5.37806363479501E-01
 cg2d: Sum(rhs),rhsMax =  -4.69485561538363E-14  5.37940146980370E-01
 cg2d: Sum(rhs),rhsMax =   2.43111086817294E-13  5.38070248998740E-01
 cg2d: Sum(rhs),rhsMax =   7.33441085642994E-14  5.38196170752079E-01
 cg2d: Sum(rhs),rhsMax =   1.19654286478976E-13  5.38317503997888E-01
 cg2d: Sum(rhs),rhsMax =   8.15597589465256E-14  5.38433965621725E-01
 cg2d: Sum(rhs),rhsMax =  -2.81677459135210E-13  5.38545392409324E-01
 cg2d: Sum(rhs),rhsMax =   1.93692284433666E-13  5.38651750734702E-01
 cg2d: Sum(rhs),rhsMax =  -9.64645030521183E-14  5.38753133309086E-01
 cg2d: Sum(rhs),rhsMax =   2.02615701994091E-14  5.38849753569320E-01
 cg2d: Sum(rhs),rhsMax =  -1.70613523309271E-13  5.38941443782480E-01
 cg2d: Sum(rhs),rhsMax =   1.40581990493160E-14  5.39028582839226E-01
 cg2d: Sum(rhs),rhsMax =   2.37074249120894E-13  5.39111691086888E-01
 cg2d: Sum(rhs),rhsMax =   2.81136225410705E-13  5.39191424565853E-01
 cg2d: Sum(rhs),rhsMax =  -1.40581990493160E-13  5.39268518002015E-01
 cg2d: Sum(rhs),rhsMax =  -2.74807954170342E-13  5.39343755745315E-01
 cg2d: Sum(rhs),rhsMax =  -7.38714645009964E-14  5.39417963222409E-01
 cg2d: Sum(rhs),rhsMax =   2.47774023520719E-13  5.39491998183148E-01
 cg2d: Sum(rhs),rhsMax =   1.66103242271731E-13  5.39566684528546E-01
 cg2d: Sum(rhs),rhsMax =  -1.08330011627800E-13  5.39642834417130E-01
 cg2d: Sum(rhs),rhsMax =  -9.54653023299556E-14  5.39721203666706E-01
 cg2d: Sum(rhs),rhsMax =   2.84064438638154E-13  5.39801925205110E-01
 cg2d: Sum(rhs),rhsMax =   3.72188391217776E-13  5.39884545586592E-01
 cg2d: Sum(rhs),rhsMax =   7.83956233263439E-14  5.39969602062181E-01
 cg2d: Sum(rhs),rhsMax =   2.66148214578266E-13  5.40057563217091E-01
 cg2d: Sum(rhs),rhsMax =  -4.34235980506514E-14  5.40148852891993E-01
 cg2d: Sum(rhs),rhsMax =  -3.26697002783760E-13  5.40243739816965E-01
 cg2d: Sum(rhs),rhsMax =  -1.42316713969137E-13  5.40342330125842E-01
 cg2d: Sum(rhs),rhsMax =   1.18863252573931E-13  5.40444755551821E-01
 cg2d: Sum(rhs),rhsMax =   5.09814412907872E-13  5.40550925009169E-01
 cg2d: Sum(rhs),rhsMax =   6.55864251797311E-14  5.40660675318333E-01
 cg2d: Sum(rhs),rhsMax =  -1.54987134237672E-13  5.40773138087033E-01
 cg2d: Sum(rhs),rhsMax =  -3.65180108374830E-13  5.40887864542006E-01
 cg2d: Sum(rhs),rhsMax =  -9.79771819231701E-14  5.41004433161805E-01
 cg2d: Sum(rhs),rhsMax =  -1.32491240201205E-13  5.41122317501000E-01
 cg2d: Sum(rhs),rhsMax =  -2.16618389892176E-13  5.41241011755611E-01
 cg2d: Sum(rhs),rhsMax =   2.10664818922623E-14  5.41359904430955E-01
 cg2d: Sum(rhs),rhsMax =   3.16038861747359E-13  5.41478399278913E-01
 cg2d: Sum(rhs),rhsMax =  -1.96301308541535E-13  5.41595904089031E-01
 cg2d: Sum(rhs),rhsMax =   9.85878045867139E-14  5.41711811075811E-01
 cg2d: Sum(rhs),rhsMax =  -3.90520948911899E-14  5.41825584916772E-01
 cg2d: Sum(rhs),rhsMax =   2.58043586498502E-13  5.41936681978885E-01
 cg2d: Sum(rhs),rhsMax =   3.06560332674621E-14  5.42043655124640E-01
 cg2d: Sum(rhs),rhsMax =   1.21014309684142E-13  5.42145940162412E-01
 cg2d: Sum(rhs),rhsMax =  -2.27817764653082E-13  5.42243367797602E-01
 cg2d: Sum(rhs),rhsMax =  -1.25011112572793E-13  5.42335886750112E-01
 cg2d: Sum(rhs),rhsMax =  -4.05994682317612E-13  5.42423561521916E-01
 cg2d: Sum(rhs),rhsMax =   6.64884813872391E-14  5.42506646805133E-01
 cg2d: Sum(rhs),rhsMax =  -2.04003480774873E-15  5.42585380584630E-01
 cg2d: Sum(rhs),rhsMax =   3.25281468427363E-13  5.42660126054753E-01
 cg2d: Sum(rhs),rhsMax =  -5.28188603965418E-14  5.42730788040544E-01
 cg2d: Sum(rhs),rhsMax =   1.40915057400548E-13  5.42797941494703E-01
 cg2d: Sum(rhs),rhsMax =   4.16194856356356E-14  5.42862935199177E-01
 cg2d: Sum(rhs),rhsMax =  -2.50577336657898E-13  5.42925846226525E-01
 cg2d: Sum(rhs),rhsMax =   2.09277040141842E-14  5.42987486293717E-01
 cg2d: Sum(rhs),rhsMax =  -1.24220078667747E-13  5.43048624641781E-01
 cg2d: Sum(rhs),rhsMax =   2.33146835171283E-13  5.43110102844331E-01
 cg2d: Sum(rhs),rhsMax =  -5.85642645489770E-14  5.43172158561090E-01
 cg2d: Sum(rhs),rhsMax =  -6.11871664446539E-14  5.43234641951814E-01
 cg2d: Sum(rhs),rhsMax =  -3.53689300069959E-13  5.43298210746605E-01
 cg2d: Sum(rhs),rhsMax =  -1.05401798400351E-13  5.43363485870950E-01
 cg2d: Sum(rhs),rhsMax =   1.83464354819307E-13  5.43430991193770E-01
 cg2d: Sum(rhs),rhsMax =   2.50355292052973E-14  5.43501230395667E-01
 cg2d: Sum(rhs),rhsMax =  -3.39173134022985E-14  5.43574603992931E-01
 cg2d: Sum(rhs),rhsMax =   3.29458682557515E-13  5.43651407930627E-01
 cg2d: Sum(rhs),rhsMax =  -7.07073288808147E-14  5.43731830979060E-01
 cg2d: Sum(rhs),rhsMax =   1.08496545081493E-13  5.43815951407115E-01
 cg2d: Sum(rhs),rhsMax =  -1.09884323862275E-13  5.43903775460507E-01
 cg2d: Sum(rhs),rhsMax =   1.35058630945650E-13  5.43994804050358E-01
 cg2d: Sum(rhs),rhsMax =  -1.22998833340660E-13  5.44088391050168E-01
 cg2d: Sum(rhs),rhsMax =  -3.49470452576384E-13  5.44184163428615E-01
 cg2d: Sum(rhs),rhsMax =   1.83270065789998E-13  5.44281706200685E-01
 cg2d: Sum(rhs),rhsMax =   2.86187740172750E-13  5.44380494584329E-01
 cg2d: Sum(rhs),rhsMax =  -3.34315908290250E-14  5.44480002839325E-01
 cg2d: Sum(rhs),rhsMax =  -2.53130849614536E-14  5.44579882241487E-01
 cg2d: Sum(rhs),rhsMax =   1.49033563268119E-13  5.44679550710096E-01
 cg2d: Sum(rhs),rhsMax =  -2.98677749199783E-13  5.44777930058606E-01
 cg2d: Sum(rhs),rhsMax =  -1.52836077127461E-13  5.44874607760351E-01
 cg2d: Sum(rhs),rhsMax =  -2.35797492642575E-13  5.44968958636611E-01
 cg2d: Sum(rhs),rhsMax =   8.42104164178181E-14  5.45060577529410E-01
 cg2d: Sum(rhs),rhsMax =   6.04238881152241E-14  5.45148826960573E-01
 cg2d: Sum(rhs),rhsMax =   3.32858740570430E-13  5.45236873813438E-01
 cg2d: Sum(rhs),rhsMax =   3.27460281113190E-13  5.45321394019401E-01
 cg2d: Sum(rhs),rhsMax =   1.49047441055927E-13  5.45401487764901E-01
 cg2d: Sum(rhs),rhsMax =   6.71129818385907E-14  5.45476327615008E-01
 cg2d: Sum(rhs),rhsMax =   4.11878864348125E-13  5.45545809786955E-01
 cg2d: Sum(rhs),rhsMax =  -3.14887005359310E-14  5.45610094379672E-01
 cg2d: Sum(rhs),rhsMax =  -2.00145455764300E-13  5.45669494961985E-01
 cg2d: Sum(rhs),rhsMax =   3.62765373296270E-14  5.45724418125807E-01
 cg2d: Sum(rhs),rhsMax =  -1.65381597305725E-13  5.45775195310079E-01
 cg2d: Sum(rhs),rhsMax =   1.97175609173428E-13  5.45821951170125E-01
 cg2d: Sum(rhs),rhsMax =  -4.75314232417645E-14  5.45865381416971E-01
 cg2d: Sum(rhs),rhsMax =  -4.38399316848859E-14  5.45906079159851E-01
 cg2d: Sum(rhs),rhsMax =  -3.58046925441613E-14  5.45944132365690E-01
 cg2d: Sum(rhs),rhsMax =  -6.20337115009306E-15  5.45980191643378E-01
 cg2d: Sum(rhs),rhsMax =   4.11198852745542E-14  5.46015019721610E-01
 cg2d: Sum(rhs),rhsMax =   1.17156284673570E-13  5.46049366929886E-01
 cg2d: Sum(rhs),rhsMax =   1.47465373245836E-13  5.46083981034262E-01
 cg2d: Sum(rhs),rhsMax =   4.63518112781003E-15  5.46119595603182E-01
 cg2d: Sum(rhs),rhsMax =   1.86933801771261E-13  5.46156878715553E-01
 cg2d: Sum(rhs),rhsMax =  -2.44415598871228E-13  5.46196420432471E-01
 cg2d: Sum(rhs),rhsMax =   5.25524068706318E-13  5.46238800943708E-01
 cg2d: Sum(rhs),rhsMax =   5.27702881392145E-13  5.46284418115729E-01
 cg2d: Sum(rhs),rhsMax =   1.72903358297560E-13  5.46333607393522E-01
 cg2d: Sum(rhs),rhsMax =   5.47131784323085E-13  5.46387730012629E-01
 cg2d: Sum(rhs),rhsMax =   4.09811073964761E-14  5.46445730491966E-01
 cg2d: Sum(rhs),rhsMax =  -3.19480553123697E-13  5.46507121976309E-01
 cg2d: Sum(rhs),rhsMax =  -3.25364735154210E-13  5.46571472529216E-01
 cg2d: Sum(rhs),rhsMax =  -1.40693012795623E-13  5.46638514257437E-01
 cg2d: Sum(rhs),rhsMax =  -1.74429914956420E-13  5.46707860627044E-01
 cg2d: Sum(rhs),rhsMax =   1.88016269220270E-13  5.46779135185587E-01
 cg2d: Sum(rhs),rhsMax =  -4.08714728727944E-13  5.46851787090549E-01
 cg2d: Sum(rhs),rhsMax =   4.26755852878102E-13  5.46925320712542E-01
 cg2d: Sum(rhs),rhsMax =   2.79151701754188E-13  5.46999100558268E-01
 cg2d: Sum(rhs),rhsMax =   1.73597247687951E-13  5.47072548692774E-01
 cg2d: Sum(rhs),rhsMax =  -1.33670852164869E-13  5.47145033787263E-01
 cg2d: Sum(rhs),rhsMax =   1.45577994103974E-13  5.47215958847517E-01
 cg2d: Sum(rhs),rhsMax =   2.73683853357909E-13  5.47218002208732E-01
 cg2d: Sum(rhs),rhsMax =   1.06276099032243E-13  5.47123257034656E-01
 cg2d: Sum(rhs),rhsMax =   1.52336476766379E-13  5.47025448437327E-01
 cg2d: Sum(rhs),rhsMax =  -7.82846010238814E-14  5.46926204378908E-01
 cg2d: Sum(rhs),rhsMax =   3.13651882244415E-13  5.46824589730974E-01
 cg2d: Sum(rhs),rhsMax =   7.95336019265847E-14  5.46720686971895E-01
 cg2d: Sum(rhs),rhsMax =  -1.34350863767452E-13  5.46614195888564E-01
 cg2d: Sum(rhs),rhsMax =  -1.91999194321113E-13  5.46505026153868E-01
 cg2d: Sum(rhs),rhsMax =  -1.43163259025414E-13  5.46393233524610E-01
 cg2d: Sum(rhs),rhsMax =   4.89192020225460E-13  5.46278916427634E-01
 cg2d: Sum(rhs),rhsMax =   1.79356529628194E-13  5.46162238762458E-01
 cg2d: Sum(rhs),rhsMax =  -7.56755769160122E-14  5.46043174988444E-01
 cg2d: Sum(rhs),rhsMax =   2.10692574498239E-13  5.45921963246856E-01
 cg2d: Sum(rhs),rhsMax =   2.03032035628326E-14  5.45798537427027E-01
 cg2d: Sum(rhs),rhsMax =  -1.53765888910584E-14  5.45673145819023E-01
 cg2d: Sum(rhs),rhsMax =   1.09454112440233E-13  5.45546159032481E-01
 cg2d: Sum(rhs),rhsMax =   2.71616062974545E-13  5.45417987511967E-01
 cg2d: Sum(rhs),rhsMax =  -9.45354905468321E-14  5.45289124030027E-01
 cg2d: Sum(rhs),rhsMax =  -2.44526621173691E-13  5.45160107873481E-01
 cg2d: Sum(rhs),rhsMax =   2.49050779999038E-13  5.45055543419655E-01
 cg2d: Sum(rhs),rhsMax =   2.12288520096138E-13  5.44977841647943E-01
 cg2d: Sum(rhs),rhsMax =  -3.00467983826991E-13  5.44903181550313E-01
 cg2d: Sum(rhs),rhsMax =   1.76886283398403E-13  5.44831785144597E-01
 cg2d: Sum(rhs),rhsMax =  -2.14828155264968E-14  5.44763999827221E-01
 cg2d: Sum(rhs),rhsMax =  -8.13238365537927E-15  5.44699668419943E-01
 cg2d: Sum(rhs),rhsMax =   4.23619472833536E-13  5.44637973116765E-01
 cg2d: Sum(rhs),rhsMax =   1.91208160416068E-13  5.44576494865255E-01
 cg2d: Sum(rhs),rhsMax =   2.43804976207684E-13  5.44514672045026E-01
 cg2d: Sum(rhs),rhsMax =  -2.07334149848748E-14  5.44452369260381E-01
 cg2d: Sum(rhs),rhsMax =   4.17138545927287E-13  5.44389533221836E-01
 cg2d: Sum(rhs),rhsMax =  -2.87728174619417E-13  5.44326059542480E-01
 cg2d: Sum(rhs),rhsMax =  -7.03742619734271E-14  5.44261695971833E-01
 cg2d: Sum(rhs),rhsMax =  -5.78426195829707E-14  5.44196431984473E-01
 cg2d: Sum(rhs),rhsMax =   3.23074900165921E-14  5.44130227294603E-01
 cg2d: Sum(rhs),rhsMax =   1.00003338943111E-13  5.44062963231937E-01
 cg2d: Sum(rhs),rhsMax =  -1.53613233244698E-13  5.43994586005268E-01
 cg2d: Sum(rhs),rhsMax =  -9.99200722162641E-16  5.43924956389129E-01
 cg2d: Sum(rhs),rhsMax =  -4.92106355665101E-14  5.43854179569266E-01
 cg2d: Sum(rhs),rhsMax =   4.12475609223861E-13  5.43781701162299E-01
 cg2d: Sum(rhs),rhsMax =  -1.13728471085039E-13  5.43707619237822E-01
 cg2d: Sum(rhs),rhsMax =   4.51860771022439E-14  5.43631915597275E-01
 cg2d: Sum(rhs),rhsMax =  -1.65145674912992E-14  5.43554631335594E-01
 cg2d: Sum(rhs),rhsMax =   1.18433041151889E-13  5.43475742820693E-01
 cg2d: Sum(rhs),rhsMax =  -1.14158682507082E-13  5.43395388586386E-01
 cg2d: Sum(rhs),rhsMax =   1.25233157177718E-13  5.43313766557251E-01
 cg2d: Sum(rhs),rhsMax =  -3.21742632536370E-13  5.43231003733284E-01
 cg2d: Sum(rhs),rhsMax =   1.82992510033841E-13  5.43147223738135E-01
 cg2d: Sum(rhs),rhsMax =   1.33837385618563E-13  5.43062314824055E-01
 cg2d: Sum(rhs),rhsMax =   4.91412466274710E-13  5.42976733512475E-01
 cg2d: Sum(rhs),rhsMax =  -3.39867023413376E-14  5.42890591526198E-01
 cg2d: Sum(rhs),rhsMax =   5.45979927935036E-13  5.42804368632599E-01
 cg2d: Sum(rhs),rhsMax =  -1.86517468137026E-14  5.42717898752669E-01
 cg2d: Sum(rhs),rhsMax =   1.36585187604510E-13  5.42631155736051E-01
 cg2d: Sum(rhs),rhsMax =   1.50546242139171E-13  5.42544143871570E-01
 cg2d: Sum(rhs),rhsMax =  -1.99562588676372E-13  5.42457106051183E-01
 cg2d: Sum(rhs),rhsMax =  -1.15338294470746E-13  5.42370231212210E-01
 cg2d: Sum(rhs),rhsMax =   1.32213684445048E-13  5.42283579450107E-01
 cg2d: Sum(rhs),rhsMax =   1.13936637902157E-13  5.42197332985283E-01
 cg2d: Sum(rhs),rhsMax =  -7.09154956979319E-15  5.42111664633287E-01
 cg2d: Sum(rhs),rhsMax =  -4.94049245958195E-15  5.42026720264534E-01
 cg2d: Sum(rhs),rhsMax =   1.48145384848419E-13  5.41942610837609E-01
 cg2d: Sum(rhs),rhsMax =   3.78405640155677E-13  5.41859398622122E-01
 cg2d: Sum(rhs),rhsMax =   4.05175892836951E-13  5.41777087962656E-01
 cg2d: Sum(rhs),rhsMax =   4.51028103753970E-15  5.41695312125717E-01
 cg2d: Sum(rhs),rhsMax =  -1.02917674382752E-13  5.41613904990990E-01
 cg2d: Sum(rhs),rhsMax =  -4.97102359275914E-14  5.41532484549914E-01
 cg2d: Sum(rhs),rhsMax =   9.06358321728362E-14  5.41450948792837E-01
 cg2d: Sum(rhs),rhsMax =  -1.17378329278495E-13  5.41369113245380E-01
 cg2d: Sum(rhs),rhsMax =  -1.17003629007684E-13  5.41286818933518E-01
 cg2d: Sum(rhs),rhsMax =   2.99760216648792E-14  5.41203867322271E-01
 cg2d: Sum(rhs),rhsMax =  -2.45414799593391E-13  5.41120147748408E-01
 cg2d: Sum(rhs),rhsMax =   1.63424829224823E-13  5.41035398548945E-01
 cg2d: Sum(rhs),rhsMax =   5.26245713672324E-14  5.40949472202709E-01
 cg2d: Sum(rhs),rhsMax =  -2.36755060001315E-13  5.40862112296347E-01
 cg2d: Sum(rhs),rhsMax =  -1.15227272168283E-13  5.40773041690265E-01
 cg2d: Sum(rhs),rhsMax =   2.79221090693227E-14  5.40682116159870E-01
 cg2d: Sum(rhs),rhsMax =  -1.05915276549240E-13  5.40589242190798E-01
 cg2d: Sum(rhs),rhsMax =   1.97994398654089E-13  5.40494354296144E-01
 cg2d: Sum(rhs),rhsMax =   2.93640112225546E-13  5.40397441543728E-01
 cg2d: Sum(rhs),rhsMax =   1.07983066932604E-13  5.40298461305964E-01
 cg2d: Sum(rhs),rhsMax =  -7.55367990379341E-14  5.40197492300434E-01
 cg2d: Sum(rhs),rhsMax =   1.91985316533305E-13  5.40094588624697E-01
 cg2d: Sum(rhs),rhsMax =  -4.07715528005781E-13  5.39989875880796E-01
 cg2d: Sum(rhs),rhsMax =   1.65950586605845E-13  5.39883498296495E-01
 cg2d: Sum(rhs),rhsMax =  -7.93531906850831E-14  5.39775615737824E-01
 cg2d: Sum(rhs),rhsMax =  -1.22304943950269E-13  5.39666554165138E-01
 cg2d: Sum(rhs),rhsMax =   6.54615250894608E-14  5.39556539580728E-01
 cg2d: Sum(rhs),rhsMax =  -2.62845301080006E-14  5.39445790291727E-01
 cg2d: Sum(rhs),rhsMax =   1.32491240201205E-13  5.39334530340065E-01
 cg2d: Sum(rhs),rhsMax =  -1.90833460145257E-13  5.39222978326857E-01
 cg2d: Sum(rhs),rhsMax =   3.70009578531949E-13  5.39111348342604E-01
 cg2d: Sum(rhs),rhsMax =  -4.75855466142150E-13  5.38999870608254E-01
 cg2d: Sum(rhs),rhsMax =  -2.61193844330876E-13  5.38888666148417E-01
 cg2d: Sum(rhs),rhsMax =  -2.58959520493818E-14  5.38777634513765E-01
 cg2d: Sum(rhs),rhsMax =  -1.37959088597484E-13  5.38666989065322E-01
 cg2d: Sum(rhs),rhsMax =  -1.94885774185138E-13  5.38556943369519E-01
 cg2d: Sum(rhs),rhsMax =   4.91412466274710E-14  5.38447695364741E-01
 cg2d: Sum(rhs),rhsMax =   1.19126930542279E-13  5.38339256619002E-01
 cg2d: Sum(rhs),rhsMax =   1.15893405983059E-13  5.38231707157125E-01
 cg2d: Sum(rhs),rhsMax =   3.23768789556311E-13  5.38125134723068E-01
 cg2d: Sum(rhs),rhsMax =  -9.32032229172819E-14  5.38019539565419E-01
 cg2d: Sum(rhs),rhsMax =   1.13214992936150E-13  5.37914697964905E-01
 cg2d: Sum(rhs),rhsMax =  -2.76501044282895E-13  5.37810379446616E-01
 cg2d: Sum(rhs),rhsMax =   1.73083769539062E-13  5.37706518102370E-01
 cg2d: Sum(rhs),rhsMax =   1.85337856173362E-13  5.37603022473180E-01
 cg2d: Sum(rhs),rhsMax =  -1.71473946153355E-13  5.37499585847197E-01
 cg2d: Sum(rhs),rhsMax =   3.98153732206197E-14  5.37396134202174E-01
 cg2d: Sum(rhs),rhsMax =   3.11722869739128E-13  5.37292492630509E-01
 cg2d: Sum(rhs),rhsMax =  -3.07531777821168E-14  5.37188446617157E-01
 cg2d: Sum(rhs),rhsMax =   3.06560332674621E-14  5.37083607531449E-01
 cg2d: Sum(rhs),rhsMax =   1.04458108829419E-13  5.36977695663591E-01
 cg2d: Sum(rhs),rhsMax =   9.17321774096536E-14  5.36870363944688E-01
 cg2d: Sum(rhs),rhsMax =   1.59330881821518E-13  5.36761372035111E-01
 cg2d: Sum(rhs),rhsMax =   1.64729341278758E-14  5.36650684877448E-01
 cg2d: Sum(rhs),rhsMax =  -3.04020697505791E-13  5.36538142046649E-01
 cg2d: Sum(rhs),rhsMax =  -1.32574506928052E-13  5.36423709476444E-01
 cg2d: Sum(rhs),rhsMax =  -6.45594688819529E-14  5.36307194306478E-01
 cg2d: Sum(rhs),rhsMax =   4.85722573273506E-14  5.36188545621331E-01
 cg2d: Sum(rhs),rhsMax =   1.41997524849558E-13  5.36067757473362E-01
 cg2d: Sum(rhs),rhsMax =   2.04614103438416E-13  5.35944868476100E-01
 cg2d: Sum(rhs),rhsMax =   4.83724171829181E-13  5.35819948571761E-01
 cg2d: Sum(rhs),rhsMax =  -1.64174229766445E-14  5.35693198925321E-01
 cg2d: Sum(rhs),rhsMax =  -2.73697731145717E-13  5.35564797241659E-01
 cg2d: Sum(rhs),rhsMax =   3.67483821150927E-13  5.35434959228247E-01
 cg2d: Sum(rhs),rhsMax =  -6.45317133063372E-14  5.35303897749618E-01
 cg2d: Sum(rhs),rhsMax =   4.23813761862846E-13  5.35171849472185E-01
 cg2d: Sum(rhs),rhsMax =   6.85562717706034E-15  5.35039066647109E-01
 cg2d: Sum(rhs),rhsMax =  -1.98022154229704E-13  5.34905803718778E-01
 cg2d: Sum(rhs),rhsMax =   2.42542097517173E-13  5.34772322001020E-01
 cg2d: Sum(rhs),rhsMax =  -3.65638075372487E-13  5.34638865931523E-01
 cg2d: Sum(rhs),rhsMax =  -2.48176479367146E-13  5.34505665719456E-01
 cg2d: Sum(rhs),rhsMax =   6.20448137311769E-13  5.34373437144977E-01
 cg2d: Sum(rhs),rhsMax =  -3.52495810318487E-15  5.34241867639567E-01
 cg2d: Sum(rhs),rhsMax =  -3.85982912298743E-13  5.34111104965431E-01
 cg2d: Sum(rhs),rhsMax =  -4.91273688396632E-14  5.33981234052024E-01
 cg2d: Sum(rhs),rhsMax =  -1.82256987280027E-13  5.33852320424017E-01
 cg2d: Sum(rhs),rhsMax =  -7.28861415666415E-14  5.33724387230719E-01
 cg2d: Sum(rhs),rhsMax =  -5.87724313660942E-14  5.33597405934459E-01
 cg2d: Sum(rhs),rhsMax =  -1.26343380202343E-13  5.33471331313684E-01
 cg2d: Sum(rhs),rhsMax =  -2.28136953772662E-13  5.33346079950154E-01
 cg2d: Sum(rhs),rhsMax =   2.31675789663655E-13  5.33221519089236E-01
 cg2d: Sum(rhs),rhsMax =   3.03701508386212E-13  5.33097528231961E-01
 cg2d: Sum(rhs),rhsMax =  -1.29063426612674E-15  5.32973827082565E-01
 cg2d: Sum(rhs),rhsMax =   3.78863607153335E-15  5.32850232608700E-01
 cg2d: Sum(rhs),rhsMax =  -1.01585406753202E-14  5.32726570146116E-01
 cg2d: Sum(rhs),rhsMax =   1.64021574100559E-13  5.32602529525925E-01
 cg2d: Sum(rhs),rhsMax =   2.11067274769050E-13  5.32477845094427E-01
 cg2d: Sum(rhs),rhsMax =   6.35602681597902E-14  5.32352274047221E-01
 cg2d: Sum(rhs),rhsMax =  -1.23373533611471E-13  5.32225548928251E-01
 cg2d: Sum(rhs),rhsMax =   1.29979360607990E-13  5.32097204241947E-01
 cg2d: Sum(rhs),rhsMax =   8.57230952888699E-14  5.31966816994236E-01
 cg2d: Sum(rhs),rhsMax =   7.14858727768330E-13  5.31834145423537E-01
 cg2d: Sum(rhs),rhsMax =   2.10331752015236E-13  5.31698899706641E-01
 cg2d: Sum(rhs),rhsMax =  -1.62980740014973E-13  5.31561059146603E-01
 cg2d: Sum(rhs),rhsMax =   4.33791891296664E-13  5.31420620190369E-01
 cg2d: Sum(rhs),rhsMax =   4.57675564113913E-13  5.31277454186144E-01
 cg2d: Sum(rhs),rhsMax =  -3.40699690681845E-14  5.31131603403222E-01
 cg2d: Sum(rhs),rhsMax =  -4.13641343399718E-13  5.30983130457918E-01
 cg2d: Sum(rhs),rhsMax =   2.88061241526805E-13  5.30832225558855E-01
 cg2d: Sum(rhs),rhsMax =   1.17891807427384E-13  5.30679175018004E-01
 cg2d: Sum(rhs),rhsMax =   3.56104035148519E-13  5.30524039844112E-01
 cg2d: Sum(rhs),rhsMax =  -5.95357096955240E-14  5.30367156475893E-01
 cg2d: Sum(rhs),rhsMax =  -3.83928999703187E-13  5.30208919205506E-01
 cg2d: Sum(rhs),rhsMax =   3.92338939114723E-13  5.30049661068747E-01
 cg2d: Sum(rhs),rhsMax =   5.53584955653719E-14  5.29889764787889E-01
 cg2d: Sum(rhs),rhsMax =  -4.27297086602607E-14  5.29729625767184E-01
 cg2d: Sum(rhs),rhsMax =   1.81396564435943E-13  5.29569634762732E-01
 cg2d: Sum(rhs),rhsMax =  -3.42378903006590E-13  5.29410175329246E-01
 cg2d: Sum(rhs),rhsMax =   1.20736753927986E-13  5.29251633281556E-01
 cg2d: Sum(rhs),rhsMax =   5.27494714575028E-14  5.29094343061850E-01
 cg2d: Sum(rhs),rhsMax =  -3.15303338993544E-14  5.28938602618224E-01
 cg2d: Sum(rhs),rhsMax =   4.04176692114788E-13  5.28784500916307E-01
 cg2d: Sum(rhs),rhsMax =   2.46469511466785E-14  5.28632307526092E-01
 cg2d: Sum(rhs),rhsMax =   4.20288803759661E-13  5.28482299182459E-01
 cg2d: Sum(rhs),rhsMax =   2.96318525272454E-13  5.28334593930885E-01
 cg2d: Sum(rhs),rhsMax =   2.29510854765635E-13  5.28189224284158E-01
 cg2d: Sum(rhs),rhsMax =   5.40512079538757E-13  5.28046324655485E-01
 cg2d: Sum(rhs),rhsMax =   3.10071412989998E-13  5.27904845382194E-01
 cg2d: Sum(rhs),rhsMax =   3.58033047653805E-13  5.27765522186322E-01
 cg2d: Sum(rhs),rhsMax =   6.13120665349243E-14  5.27628188339214E-01
 cg2d: Sum(rhs),rhsMax =  -6.44484465794903E-14  5.27492615499811E-01
 cg2d: Sum(rhs),rhsMax =   9.26203558293537E-14  5.27358513699559E-01
 cg2d: Sum(rhs),rhsMax =   1.51947898707760E-13  5.27225571040124E-01
 cg2d: Sum(rhs),rhsMax =  -2.29982699551101E-13  5.27093460141013E-01
 cg2d: Sum(rhs),rhsMax =  -2.79082312815149E-14  5.26961795829103E-01
 cg2d: Sum(rhs),rhsMax =  -1.68171032655096E-13  5.26830191458683E-01
 cg2d: Sum(rhs),rhsMax =   9.19403442267708E-14  5.26698273473522E-01
 cg2d: Sum(rhs),rhsMax =  -6.25055562863963E-14  5.26565653151180E-01
 cg2d: Sum(rhs),rhsMax =   4.30766533554561E-14  5.26432510596801E-01
 cg2d: Sum(rhs),rhsMax =   9.90596493721796E-14  5.26297309349452E-01
 cg2d: Sum(rhs),rhsMax =  -3.51649265262211E-13  5.26159607118973E-01
 cg2d: Sum(rhs),rhsMax =  -1.14075415780235E-14  5.26021969007706E-01
 cg2d: Sum(rhs),rhsMax =   3.67900154785161E-13  5.25880959531581E-01
 cg2d: Sum(rhs),rhsMax =   3.72910036183782E-13  5.25737635541062E-01
 cg2d: Sum(rhs),rhsMax =   2.48065457064683E-13  5.25591961880927E-01
 cg2d: Sum(rhs),rhsMax =   3.15747428203395E-13  5.25443790316150E-01
 cg2d: Sum(rhs),rhsMax =  -2.67466604420008E-13  5.25293143894543E-01
 cg2d: Sum(rhs),rhsMax =   1.36696209906972E-14  5.25140211930576E-01
 cg2d: Sum(rhs),rhsMax =   5.22623611054485E-13  5.24984851169924E-01
 cg2d: Sum(rhs),rhsMax =  -1.97175609173428E-13  5.24827329046745E-01
 cg2d: Sum(rhs),rhsMax =   4.08006961549745E-14  5.24667842372771E-01
 cg2d: Sum(rhs),rhsMax =   1.09662279257350E-13  5.24506635763825E-01
 cg2d: Sum(rhs),rhsMax =  -4.66432448220644E-14  5.24343974072952E-01
 cg2d: Sum(rhs),rhsMax =   2.56183962932255E-14  5.24180158731145E-01
 cg2d: Sum(rhs),rhsMax =   1.41900380334903E-13  5.24015484671930E-01
 cg2d: Sum(rhs),rhsMax =  -1.51961776495568E-14  5.23850264732847E-01
 cg2d: Sum(rhs),rhsMax =  -2.18575157973078E-14  5.23684830557914E-01
 cg2d: Sum(rhs),rhsMax =   2.98899793804708E-13  5.23519510220002E-01
 cg2d: Sum(rhs),rhsMax =  -2.35644836976689E-14  5.23349252015471E-01
 cg2d: Sum(rhs),rhsMax =  -1.01030295240889E-14  5.23182876999792E-01
 cg2d: Sum(rhs),rhsMax =   2.79165579541996E-13  5.23017805360229E-01
 cg2d: Sum(rhs),rhsMax =   2.27567964472541E-13  5.22853818236691E-01
 cg2d: Sum(rhs),rhsMax =  -1.72792335995098E-13  5.22691156600789E-01
 cg2d: Sum(rhs),rhsMax =   1.02529096324133E-13  5.22529880544443E-01
 cg2d: Sum(rhs),rhsMax =  -3.04728464683990E-13  5.22369967549443E-01
 cg2d: Sum(rhs),rhsMax =   3.53189699708878E-13  5.22211514700990E-01
 cg2d: Sum(rhs),rhsMax =  -1.99076866103098E-13  5.22054627896510E-01
 cg2d: Sum(rhs),rhsMax =  -1.49255607873044E-13  5.21899290800018E-01
 cg2d: Sum(rhs),rhsMax =   3.26225157998294E-13  5.21745441382378E-01
 cg2d: Sum(rhs),rhsMax =   3.22047943868142E-13  5.21592887544589E-01
 cg2d: Sum(rhs),rhsMax =   5.54098433802608E-13  5.21441448571349E-01
 cg2d: Sum(rhs),rhsMax =   3.30735439035834E-13  5.21291041258055E-01
 cg2d: Sum(rhs),rhsMax =   2.72989963967518E-13  5.21141357634636E-01
 cg2d: Sum(rhs),rhsMax =   1.13020703906841E-13  5.20992048371477E-01
 cg2d: Sum(rhs),rhsMax =   3.80875886385468E-13  5.20842689357207E-01
 cg2d: Sum(rhs),rhsMax =   4.89469575981616E-14  5.20692952807309E-01
 cg2d: Sum(rhs),rhsMax =   4.11740086470047E-13  5.20542537458872E-01
 cg2d: Sum(rhs),rhsMax =   4.38676872605015E-13  5.20391141260141E-01
 cg2d: Sum(rhs),rhsMax =   3.10265702019308E-13  5.20238495228591E-01
 cg2d: Sum(rhs),rhsMax =  -4.46725989533547E-14  5.20084338972431E-01
 cg2d: Sum(rhs),rhsMax =   2.64732680221869E-13  5.19928458150966E-01
 cg2d: Sum(rhs),rhsMax =   1.99562588676372E-14  5.19770671874280E-01
 cg2d: Sum(rhs),rhsMax =   6.56003029675389E-14  5.19610846813348E-01
 cg2d: Sum(rhs),rhsMax =   4.16111589629509E-13  5.19448889454105E-01
 cg2d: Sum(rhs),rhsMax =   1.10758624494167E-13  5.19284750097793E-01
 cg2d: Sum(rhs),rhsMax =  -1.98951966012828E-13  5.19118437580235E-01
 cg2d: Sum(rhs),rhsMax =   4.07451850037432E-14  5.18950004115264E-01
 cg2d: Sum(rhs),rhsMax =   6.10483885665758E-14  5.18779542256237E-01
 cg2d: Sum(rhs),rhsMax =  -2.48259746093993E-13  5.18609653374610E-01
 cg2d: Sum(rhs),rhsMax =   1.26731958260962E-13  5.18437967405877E-01
 cg2d: Sum(rhs),rhsMax =   2.53491672097539E-13  5.18264529281450E-01
 cg2d: Sum(rhs),rhsMax =   1.51462176134487E-13  5.18089606142162E-01
 cg2d: Sum(rhs),rhsMax =  -5.31658050917372E-14  5.17913465822508E-01
 cg2d: Sum(rhs),rhsMax =  -5.73707747975050E-14  5.17736405253493E-01
 cg2d: Sum(rhs),rhsMax =   1.20195520203481E-13  5.17558718828824E-01
 cg2d: Sum(rhs),rhsMax =   2.03864702896794E-14  5.17380671955427E-01
 cg2d: Sum(rhs),rhsMax =  -2.22044604925031E-13  5.17202269676758E-01
 cg2d: Sum(rhs),rhsMax =   2.49494869208888E-13  5.17023761785487E-01
 cg2d: Sum(rhs),rhsMax =   1.74915637529693E-13  5.16845547241257E-01
 cg2d: Sum(rhs),rhsMax =  -1.70835567914196E-14  5.16667776566223E-01
 cg2d: Sum(rhs),rhsMax =   2.98858160441284E-13  5.16490587170226E-01
 cg2d: Sum(rhs),rhsMax =   2.36394237518311E-13  5.16314301556135E-01
 cg2d: Sum(rhs),rhsMax =   3.86760068415981E-13  5.16138701486347E-01
 cg2d: Sum(rhs),rhsMax =   1.95024552063217E-13  5.15964652923133E-01
 cg2d: Sum(rhs),rhsMax =   2.50355292052973E-13  5.15791188032444E-01
 cg2d: Sum(rhs),rhsMax =  -7.16371406639382E-14  5.15619101623823E-01
 cg2d: Sum(rhs),rhsMax =   3.67775254694891E-13  5.15448086703382E-01
 cg2d: Sum(rhs),rhsMax =  -2.49092413362462E-13  5.15278218431061E-01
 cg2d: Sum(rhs),rhsMax =   1.26440524716998E-13  5.15108507172015E-01
 cg2d: Sum(rhs),rhsMax =   2.04003480774873E-15  5.14938431671324E-01
 cg2d: Sum(rhs),rhsMax =  -1.89570581454745E-13  5.14767897924997E-01
 cg2d: Sum(rhs),rhsMax =   2.14231410389232E-13  5.14596832772923E-01
 cg2d: Sum(rhs),rhsMax =  -1.78385084481647E-13  5.14424967807840E-01
 cg2d: Sum(rhs),rhsMax =   1.19071419391048E-14  5.14252147771314E-01
 cg2d: Sum(rhs),rhsMax =   4.99544849930089E-13  5.14077588765047E-01
 cg2d: Sum(rhs),rhsMax =  -1.37265199207093E-13  5.13901887390984E-01
 cg2d: Sum(rhs),rhsMax =  -1.38777878078145E-14  5.13724916779423E-01
 cg2d: Sum(rhs),rhsMax =   4.62269111878300E-13  5.13546553640753E-01
 cg2d: Sum(rhs),rhsMax =  -1.20667364988947E-13  5.13366381665785E-01
 cg2d: Sum(rhs),rhsMax =   2.37684871784438E-13  5.13183683487201E-01
 cg2d: Sum(rhs),rhsMax =   1.80827575135822E-14  5.12998458929866E-01
 cg2d: Sum(rhs),rhsMax =  -1.35003119794419E-13  5.12810777906533E-01
 cg2d: Sum(rhs),rhsMax =   5.61495294704173E-13  5.12620729774189E-01
 cg2d: Sum(rhs),rhsMax =   2.97220581479962E-13  5.12428437033641E-01
 cg2d: Sum(rhs),rhsMax =   4.98115437785884E-13  5.12234049857571E-01
 cg2d: Sum(rhs),rhsMax =   3.85108611666851E-14  5.12037716791595E-01
 cg2d: Sum(rhs),rhsMax =   3.18869930460153E-13  5.11839682936313E-01
 cg2d: Sum(rhs),rhsMax =  -1.78509984571917E-13  5.11640077265973E-01
 cg2d: Sum(rhs),rhsMax =   1.54903867510825E-13  5.11439069742437E-01
 cg2d: Sum(rhs),rhsMax =  -1.45897183223553E-13  5.11236587605567E-01
 cg2d: Sum(rhs),rhsMax =   3.77475828372553E-15  5.11032797141933E-01
 cg2d: Sum(rhs),rhsMax =   2.04225525379798E-13  5.10827866312546E-01
 cg2d: Sum(rhs),rhsMax =   1.74818493015039E-13  5.10621877193212E-01
 cg2d: Sum(rhs),rhsMax =   1.46119227828478E-13  5.10414986640431E-01
 cg2d: Sum(rhs),rhsMax =  -2.24820162486594E-13  5.10207461698703E-01
 cg2d: Sum(rhs),rhsMax =   5.41261480080379E-13  5.09999310628874E-01
 cg2d: Sum(rhs),rhsMax =   2.37088126908702E-13  5.09790607071433E-01
 cg2d: Sum(rhs),rhsMax =   1.12465592394528E-13  5.09581343303522E-01
 cg2d: Sum(rhs),rhsMax =  -7.92560461704284E-14  5.09371485328753E-01
 cg2d: Sum(rhs),rhsMax =   3.41587869101545E-13  5.09161105351899E-01
 cg2d: Sum(rhs),rhsMax =  -2.49231191240540E-13  5.08950240637426E-01
 cg2d: Sum(rhs),rhsMax =  -1.78634884662188E-13  5.08738827471573E-01
 cg2d: Sum(rhs),rhsMax =  -1.46327394645596E-13  5.08527266993468E-01
 cg2d: Sum(rhs),rhsMax =   1.33809630042947E-13  5.08314323099066E-01
 cg2d: Sum(rhs),rhsMax =   8.65696403451466E-14  5.08100775344607E-01
 cg2d: Sum(rhs),rhsMax =   4.19192458522843E-13  5.07886205428883E-01
 cg2d: Sum(rhs),rhsMax =  -2.85327317328665E-14  5.07670474385088E-01
 cg2d: Sum(rhs),rhsMax =  -5.65339441926938E-13  5.07453451296689E-01
 cg2d: Sum(rhs),rhsMax =  -5.95176685713739E-13  5.07234988281581E-01
 cg2d: Sum(rhs),rhsMax =   2.74377742748300E-13  5.07014944347764E-01
 cg2d: Sum(rhs),rhsMax =   1.49796841597549E-13  5.06793177180046E-01
 cg2d: Sum(rhs),rhsMax =   9.89902604331405E-14  5.06569561973385E-01
 cg2d: Sum(rhs),rhsMax =   2.81982770466982E-13  5.06343825244635E-01
 cg2d: Sum(rhs),rhsMax =   2.34701147405758E-13  5.06116011951097E-01
 cg2d: Sum(rhs),rhsMax =   6.09789996275367E-14  5.05879728041166E-01
 cg2d: Sum(rhs),rhsMax =   4.34763336443211E-13  5.05634735856794E-01
 cg2d: Sum(rhs),rhsMax =  -3.88966636677424E-13  5.05387258246867E-01
 cg2d: Sum(rhs),rhsMax =  -6.08263439616508E-14  5.05137756018611E-01
 cg2d: Sum(rhs),rhsMax =  -2.94458901706207E-13  5.04886239284060E-01
 cg2d: Sum(rhs),rhsMax =  -5.23608933988839E-14  5.04632768574353E-01
 cg2d: Sum(rhs),rhsMax =   1.60330082543680E-13  5.04377358901342E-01
 cg2d: Sum(rhs),rhsMax =  -1.78010384210836E-13  5.04120056000391E-01
 cg2d: Sum(rhs),rhsMax =   1.99756877705681E-13  5.03860933882109E-01
 cg2d: Sum(rhs),rhsMax =   2.71421773945235E-13  5.03600069358773E-01
 cg2d: Sum(rhs),rhsMax =   7.46069872548105E-14  5.03337607133390E-01
 cg2d: Sum(rhs),rhsMax =   3.27779470232770E-13  5.03073636335781E-01
 cg2d: Sum(rhs),rhsMax =   1.34239841464989E-13  5.02808261535532E-01
 cg2d: Sum(rhs),rhsMax =  -1.49602552568240E-14  5.02541586309118E-01
 cg2d: Sum(rhs),rhsMax =  -2.68646216383672E-13  5.02273701741226E-01
 cg2d: Sum(rhs),rhsMax =   3.53925222462692E-13  5.02004732548033E-01
 cg2d: Sum(rhs),rhsMax =  -1.37667655053519E-13  5.01734803213046E-01
 cg2d: Sum(rhs),rhsMax =   3.64958063769905E-13  5.01464149934775E-01
(PID.TID 0000.0001) // =======================================================
(PID.TID 0000.0001) // Begin MONITOR dynamic field statistics
(PID.TID 0000.0001) // =======================================================
(PID.TID 0000.0001) %MON time_tsnumber                =                 15120
(PID.TID 0000.0001) %MON time_secondsf                =   1.8144000000000E+07
(PID.TID 0000.0001) %MON dynstat_eta_max              =   1.9410635245853E-01
(PID.TID 0000.0001) %MON dynstat_eta_min              =  -2.4022550221074E-01
(PID.TID 0000.0001) %MON dynstat_eta_mean             =   2.1085962493840E-17
(PID.TID 0000.0001) %MON dynstat_eta_sd               =   1.2004681550250E-01
(PID.TID 0000.0001) %MON dynstat_eta_del2             =   3.3912864595078E-04
(PID.TID 0000.0001) %MON dynstat_uvel_max             =   2.8067371682231E-01
(PID.TID 0000.0001) %MON dynstat_uvel_min             =  -4.2600861977274E-01
(PID.TID 0000.0001) %MON dynstat_uvel_mean            =   5.9265189710304E-05
(PID.TID 0000.0001) %MON dynstat_uvel_sd              =   1.1181091988760E-02
(PID.TID 0000.0001) %MON dynstat_uvel_del2            =   3.2484321504508E-04
(PID.TID 0000.0001) %MON dynstat_vvel_max             =   3.8222257381525E-01
(PID.TID 0000.0001) %MON dynstat_vvel_min             =  -2.3884918663156E-01
(PID.TID 0000.0001) %MON dynstat_vvel_mean            =   4.7729031585863E-07
(PID.TID 0000.0001) %MON dynstat_vvel_sd              =   1.1873596484308E-02
(PID.TID 0000.0001) %MON dynstat_vvel_del2            =   2.2170066825177E-04
(PID.TID 0000.0001) %MON dynstat_wvel_max             =   2.1238538350887E-04
(PID.TID 0000.0001) %MON dynstat_wvel_min             =  -2.7389760615789E-04
(PID.TID 0000.0001) %MON dynstat_wvel_mean            =   3.5539028079684E-23
(PID.TID 0000.0001) %MON dynstat_wvel_sd              =   1.0364647026816E-05
(PID.TID 0000.0001) %MON dynstat_wvel_del2            =   3.3189042420022E-07
(PID.TID 0000.0001) %MON dynstat_theta_max            =   2.6944520982241E+01
(PID.TID 0000.0001) %MON dynstat_theta_min            =   9.9190001882048E-01
(PID.TID 0000.0001) %MON dynstat_theta_mean           =   4.0062967451794E+00
(PID.TID 0000.0001) %MON dynstat_theta_sd             =   4.4316555935355E+00
(PID.TID 0000.0001) %MON dynstat_theta_del2           =   2.1883337411687E-03
(PID.TID 0000.0001) %MON dynstat_salt_max             =   3.4500000000010E+01
(PID.TID 0000.0001) %MON dynstat_salt_min             =   3.4499999999980E+01
(PID.TID 0000.0001) %MON dynstat_salt_mean            =   3.4499999999998E+01
(PID.TID 0000.0001) %MON dynstat_salt_sd              =   2.6759157751658E-12
(PID.TID 0000.0001) %MON dynstat_salt_del2            =   1.6232799547599E-14
(PID.TID 0000.0001) %MON trAdv_CFL_u_max              =   1.0767778996137E-02
(PID.TID 0000.0001) %MON trAdv_CFL_v_max              =   4.1154507769005E-03
(PID.TID 0000.0001) %MON trAdv_CFL_w_max              =   1.9888721428473E-02
(PID.TID 0000.0001) %MON advcfl_uvel_max              =   1.0767642327781E-02
(PID.TID 0000.0001) %MON advcfl_vvel_max              =   4.1255397766231E-03
(PID.TID 0000.0001) %MON advcfl_wvel_max              =   1.8656108609149E-02
(PID.TID 0000.0001) %MON advcfl_W_hf_max              =   1.9888721428473E-02
(PID.TID 0000.0001) %MON pe_b_mean                    =   2.2771255464625E-05
(PID.TID 0000.0001) %MON ke_max                       =   1.0305816053570E-01
(PID.TID 0000.0001) %MON ke_mean                      =   1.3013132477009E-04
(PID.TID 0000.0001) %MON ke_vol                       =   7.5744557036543E+16
(PID.TID 0000.0001) %MON vort_r_min                   =  -9.0643013006563E-06
(PID.TID 0000.0001) %MON vort_r_max                   =   7.8312498307693E-06
(PID.TID 0000.0001) %MON vort_a_mean                  =   9.3555569952477E-05
(PID.TID 0000.0001) %MON vort_a_sd                    =   2.5195133833792E-05
(PID.TID 0000.0001) %MON vort_p_mean                  =   9.7478626213492E-05
(PID.TID 0000.0001) %MON vort_p_sd                    =   3.9500541332888E-05
(PID.TID 0000.0001) %MON surfExpan_theta_mean         =  -5.9478255836540E-09
(PID.TID 0000.0001) %MON surfExpan_salt_mean          =  -3.4387236579722E-21
(PID.TID 0000.0001) // =======================================================
(PID.TID 0000.0001) // End MONITOR dynamic field statistics
(PID.TID 0000.0001) // =======================================================
(PID.TID 0000.0001) %CHECKPOINT     15120 ckptA
 cg2d: Sum(rhs),rhsMax =  -4.10310674325842E-13  5.01192757322646E-01
 cg2d: Sum(rhs),rhsMax =   4.72580308219506E-13  5.00920576846035E-01
 cg2d: Sum(rhs),rhsMax =   4.68486360816200E-13  5.00647563752513E-01
 cg2d: Sum(rhs),rhsMax =   7.54812878867028E-14  5.00373660013851E-01
 cg2d: Sum(rhs),rhsMax =   4.84362550068340E-13  5.00098735764796E-01
 cg2d: Sum(rhs),rhsMax =   1.91346938294146E-13  4.99822723770333E-01
 cg2d: Sum(rhs),rhsMax =   3.30860339126104E-13  4.99545528983716E-01
 cg2d: Sum(rhs),rhsMax =   2.68673971959288E-14  4.99266820701401E-01
 cg2d: Sum(rhs),rhsMax =  -6.04377659030320E-14  4.98986478476609E-01
 cg2d: Sum(rhs),rhsMax =  -4.08006961549745E-15  4.98704912381213E-01
 cg2d: Sum(rhs),rhsMax =   2.83773005094190E-13  4.98422000146460E-01
 cg2d: Sum(rhs),rhsMax =   6.32549568280183E-14  4.98137820525525E-01
 cg2d: Sum(rhs),rhsMax =   4.21079837664706E-13  4.97852007780140E-01
 cg2d: Sum(rhs),rhsMax =   5.68989300120393E-15  4.97564949842053E-01
 cg2d: Sum(rhs),rhsMax =  -7.02354840953490E-14  4.97276194684702E-01
 cg2d: Sum(rhs),rhsMax =  -9.91429160990265E-14  4.96985649496884E-01
 cg2d: Sum(rhs),rhsMax =  -2.86715096109447E-14  4.96693225220901E-01
 cg2d: Sum(rhs),rhsMax =  -6.08207928465276E-13  4.96402200976761E-01
 cg2d: Sum(rhs),rhsMax =  -3.16136006262013E-14  4.96109111570856E-01
 cg2d: Sum(rhs),rhsMax =  -3.21548343507061E-14  4.95813316305003E-01
 cg2d: Sum(rhs),rhsMax =  -2.42666997607444E-13  4.95514756375234E-01
 cg2d: Sum(rhs),rhsMax =  -2.07597827817096E-13  4.95213399076166E-01
 cg2d: Sum(rhs),rhsMax =   2.53727594490272E-13  4.94909248997922E-01
 cg2d: Sum(rhs),rhsMax =  -2.20296003661247E-13  4.94602361978686E-01
 cg2d: Sum(rhs),rhsMax =  -5.54695178678344E-14  4.94292817759484E-01
 cg2d: Sum(rhs),rhsMax =  -4.80712691874885E-13  4.93980733935232E-01
 cg2d: Sum(rhs),rhsMax =   3.37466166122624E-13  4.93666254710315E-01
 cg2d: Sum(rhs),rhsMax =   4.39190350753904E-13  4.93349571741922E-01
 cg2d: Sum(rhs),rhsMax =   8.51818615643651E-14  4.93030856005956E-01
 cg2d: Sum(rhs),rhsMax =  -1.69392277982183E-13  4.92710335920671E-01
 cg2d: Sum(rhs),rhsMax =  -5.45674616603264E-14  4.92388230275377E-01
 cg2d: Sum(rhs),rhsMax =   2.27373675443232E-13  4.92064763114256E-01
 cg2d: Sum(rhs),rhsMax =   9.07052211118753E-13  4.91740165976595E-01
 cg2d: Sum(rhs),rhsMax =  -1.90111815179250E-13  4.91414651236368E-01
 cg2d: Sum(rhs),rhsMax =  -2.36893837879393E-13  4.91088425707369E-01
 cg2d: Sum(rhs),rhsMax =   4.35124158926214E-13  4.90761746374631E-01
 cg2d: Sum(rhs),rhsMax =  -1.57096557984460E-14  4.90434964771964E-01
 cg2d: Sum(rhs),rhsMax =   2.45498066320238E-14  4.90390595362859E-01
 cg2d: Sum(rhs),rhsMax =   1.55819801506141E-13  4.90425256226328E-01
 cg2d: Sum(rhs),rhsMax =  -2.96873636784767E-13  4.90458862327457E-01
 cg2d: Sum(rhs),rhsMax =   1.77080572427712E-13  4.90490393566661E-01
 cg2d: Sum(rhs),rhsMax =  -2.82732171008604E-13  4.90519694199356E-01
 cg2d: Sum(rhs),rhsMax =   5.14019382613640E-13  4.90546602236047E-01
 cg2d: Sum(rhs),rhsMax =  -5.59996493620929E-13  4.90571011919241E-01
 cg2d: Sum(rhs),rhsMax =   7.10584369123524E-13  4.90592862043560E-01
 cg2d: Sum(rhs),rhsMax =   3.51565998535364E-13  4.90612133999727E-01
 cg2d: Sum(rhs),rhsMax =   6.72517597166689E-14  4.90628844807497E-01
 cg2d: Sum(rhs),rhsMax =   2.49328335755195E-13  4.90643062952187E-01
 cg2d: Sum(rhs),rhsMax =   6.88366030843213E-13  4.90654890102351E-01
 cg2d: Sum(rhs),rhsMax =  -5.92331739213137E-13  4.90664447179099E-01
 cg2d: Sum(rhs),rhsMax =   1.85851334322251E-13  4.90671898729087E-01
 cg2d: Sum(rhs),rhsMax =  -2.55240273361323E-13  4.90677182947255E-01
 cg2d: Sum(rhs),rhsMax =   2.25902629935604E-13  4.90680735865469E-01
 cg2d: Sum(rhs),rhsMax =   3.81916720471054E-14  4.90682770735651E-01
 cg2d: Sum(rhs),rhsMax =   3.54091755916386E-13  4.90683520422844E-01
 cg2d: Sum(rhs),rhsMax =   2.24889551425633E-13  4.90683176114997E-01
 cg2d: Sum(rhs),rhsMax =   3.59365315283355E-13  4.90681985249410E-01
 cg2d: Sum(rhs),rhsMax =  -3.06532577099006E-13  4.90680121010730E-01
 cg2d: Sum(rhs),rhsMax =   4.90163465372007E-14  4.90677793050409E-01
 cg2d: Sum(rhs),rhsMax =   3.89271948009196E-14  4.90675194483793E-01
 cg2d: Sum(rhs),rhsMax =  -1.84172121997506E-13  4.90672455724886E-01
 cg2d: Sum(rhs),rhsMax =  -3.16691117774326E-14  4.90669695818797E-01
 cg2d: Sum(rhs),rhsMax =   9.75330927133200E-14  4.90667011874729E-01
 cg2d: Sum(rhs),rhsMax =   2.69284594622832E-13  4.90664460333783E-01
 cg2d: Sum(rhs),rhsMax =  -2.19158025061006E-13  4.90662064411766E-01
 cg2d: Sum(rhs),rhsMax =  -9.20929998926567E-14  4.90659829420400E-01
 cg2d: Sum(rhs),rhsMax =   2.56322740810333E-13  4.90657717575479E-01
 cg2d: Sum(rhs),rhsMax =  -5.30131494258512E-14  4.90655678530034E-01
 cg2d: Sum(rhs),rhsMax =   2.32591723658970E-13  4.90622691355505E-01
 cg2d: Sum(rhs),rhsMax =   1.56097357262297E-13  4.90573068111785E-01
 cg2d: Sum(rhs),rhsMax =   2.17589835038723E-13  4.90523332229606E-01
 cg2d: Sum(rhs),rhsMax =   8.65141291939153E-14  4.90473621246416E-01
 cg2d: Sum(rhs),rhsMax =  -2.66384136970998E-13  4.90423702582109E-01
 cg2d: Sum(rhs),rhsMax =   1.07386322056868E-13  4.90373551954045E-01
 cg2d: Sum(rhs),rhsMax =   2.09540718110190E-13  4.90323093308037E-01
 cg2d: Sum(rhs),rhsMax =   4.87360152234828E-13  4.90272257162037E-01
 cg2d: Sum(rhs),rhsMax =  -4.53651005649647E-13  4.90220952313061E-01
 cg2d: Sum(rhs),rhsMax =  -1.46757606067638E-13  4.90169549859914E-01
 cg2d: Sum(rhs),rhsMax =   9.76024816523591E-14  4.90116865858339E-01
 cg2d: Sum(rhs),rhsMax =  -2.37476704967321E-13  4.90063146379222E-01
 cg2d: Sum(rhs),rhsMax =  -1.36238242909315E-13  4.90009875432263E-01
 cg2d: Sum(rhs),rhsMax =  -2.58654209162046E-13  4.89954861884389E-01
 cg2d: Sum(rhs),rhsMax =   3.35925731675957E-13  4.89899078260960E-01
 cg2d: Sum(rhs),rhsMax =  -3.09544057053301E-13  4.89842351323702E-01
 cg2d: Sum(rhs),rhsMax =   7.21644966006352E-15  4.89784617148511E-01
 cg2d: Sum(rhs),rhsMax =  -1.13964393477772E-13  4.89725861380598E-01
 cg2d: Sum(rhs),rhsMax =   2.90045765183322E-13  4.89666130468462E-01
 cg2d: Sum(rhs),rhsMax =  -2.44373965507805E-13  4.89605458751354E-01
 cg2d: Sum(rhs),rhsMax =  -6.21724893790088E-15  4.89543873480053E-01
 cg2d: Sum(rhs),rhsMax =  -2.24806284698786E-13  4.89481396345462E-01
 cg2d: Sum(rhs),rhsMax =   9.81159598012482E-15  4.89418076029149E-01
 cg2d: Sum(rhs),rhsMax =   3.13277181973604E-13  4.89353946497984E-01
 cg2d: Sum(rhs),rhsMax =   3.79307696363185E-13  4.89288997497608E-01
 cg2d: Sum(rhs),rhsMax =   4.63559746144426E-13  4.89223374752379E-01
 cg2d: Sum(rhs),rhsMax =   2.01699767998775E-13  4.89157141238001E-01
 cg2d: Sum(rhs),rhsMax =   3.83817977400724E-13  4.89090370927954E-01
 cg2d: Sum(rhs),rhsMax =  -9.17599329852692E-14  4.89023138286430E-01
 cg2d: Sum(rhs),rhsMax =   4.81684137021432E-13  4.88955509602071E-01
 cg2d: Sum(rhs),rhsMax =  -2.48176479367146E-13  4.88887565796016E-01
 cg2d: Sum(rhs),rhsMax =  -1.59816604394791E-13  4.88819522055917E-01
 cg2d: Sum(rhs),rhsMax =   1.28771993068710E-13  4.88751252735477E-01
 cg2d: Sum(rhs),rhsMax =  -1.04680153434344E-13  4.88682815207257E-01
 cg2d: Sum(rhs),rhsMax =  -4.37996861002432E-13  4.88614280589771E-01
 cg2d: Sum(rhs),rhsMax =  -2.08832950931992E-13  4.88545705783903E-01
 cg2d: Sum(rhs),rhsMax =   3.25489635244480E-13  4.88477258753576E-01
 cg2d: Sum(rhs),rhsMax =   8.24895707296491E-14  4.88409026196601E-01
 cg2d: Sum(rhs),rhsMax =   8.23091594881475E-14  4.88340858126739E-01
 cg2d: Sum(rhs),rhsMax =   2.61179966543068E-13  4.88272863173548E-01
 cg2d: Sum(rhs),rhsMax =  -1.15699116953749E-13  4.88205094391867E-01
 cg2d: Sum(rhs),rhsMax =   1.15560339075671E-13  4.88137591236781E-01
 cg2d: Sum(rhs),rhsMax =   2.60971799725951E-13  4.88070391994418E-01
 cg2d: Sum(rhs),rhsMax =   1.49297241236468E-13  4.88003518476830E-01
 cg2d: Sum(rhs),rhsMax =  -1.70391478704346E-13  4.87937010515577E-01
 cg2d: Sum(rhs),rhsMax =  -5.23608933988839E-14  4.87869606523382E-01
 cg2d: Sum(rhs),rhsMax =  -3.21923043777872E-13  4.87802461813924E-01
 cg2d: Sum(rhs),rhsMax =   5.94913007745390E-13  4.88261783915734E-01
 cg2d: Sum(rhs),rhsMax =   5.44397860124946E-13  4.88735684136811E-01
 cg2d: Sum(rhs),rhsMax =   4.72011318919385E-13  4.89211093925101E-01
 cg2d: Sum(rhs),rhsMax =  -2.35977903884077E-13  4.89688223752206E-01
 cg2d: Sum(rhs),rhsMax =   4.23688861772575E-13  4.90167219267403E-01
 cg2d: Sum(rhs),rhsMax =  -5.85628767701962E-13  4.90648192087951E-01
 cg2d: Sum(rhs),rhsMax =   2.01658134635352E-13  4.91131143827599E-01
 cg2d: Sum(rhs),rhsMax =   2.26402230296685E-13  4.91616031651060E-01
 cg2d: Sum(rhs),rhsMax =   3.61377594515488E-14  4.92102821187762E-01
 cg2d: Sum(rhs),rhsMax =   5.30755994709864E-13  4.92591422201207E-01
 cg2d: Sum(rhs),rhsMax =   3.00329205948913E-13  4.93080819302533E-01
 cg2d: Sum(rhs),rhsMax =  -5.47756284774437E-14  4.93570299079980E-01
 cg2d: Sum(rhs),rhsMax =   5.07371922253697E-14  4.94059588399850E-01
 cg2d: Sum(rhs),rhsMax =   5.52252688024168E-13  4.94548207518242E-01
 cg2d: Sum(rhs),rhsMax =  -2.85049761572509E-14  4.95035700575960E-01
 cg2d: Sum(rhs),rhsMax =   3.52898266164914E-13  4.95521517157531E-01
 cg2d: Sum(rhs),rhsMax =   5.59871593530659E-13  4.96005847632484E-01
 cg2d: Sum(rhs),rhsMax =   2.10387263166467E-14  4.96493694683979E-01
 cg2d: Sum(rhs),rhsMax =   3.12763703824714E-13  4.96979468907770E-01
 cg2d: Sum(rhs),rhsMax =  -1.29340982368831E-14  4.97463053888593E-01
 cg2d: Sum(rhs),rhsMax =  -1.04208308648879E-13  4.97944452053541E-01
 cg2d: Sum(rhs),rhsMax =  -4.35929070619068E-13  4.98424216178367E-01
 cg2d: Sum(rhs),rhsMax =  -1.51323398256409E-13  4.98903067697748E-01
 cg2d: Sum(rhs),rhsMax =   5.34156052722778E-14  4.99379714903095E-01
 cg2d: Sum(rhs),rhsMax =   1.83797421726695E-13  4.99854064684743E-01
 cg2d: Sum(rhs),rhsMax =   1.36654576543549E-13  5.00325829954902E-01
 cg2d: Sum(rhs),rhsMax =  -8.27976576189826E-13  5.00795843634988E-01
 cg2d: Sum(rhs),rhsMax =  -1.33754118891716E-13  5.01263317547918E-01
 cg2d: Sum(rhs),rhsMax =  -2.82274204010946E-14  5.01728568745348E-01
 cg2d: Sum(rhs),rhsMax =  -1.05415676188159E-13  5.02191772953871E-01
 cg2d: Sum(rhs),rhsMax =   7.07489622442381E-14  5.02653164827958E-01
 cg2d: Sum(rhs),rhsMax =  -5.93969318174459E-14  5.03111823277401E-01
 cg2d: Sum(rhs),rhsMax =   5.06830688529192E-13  5.03568041358134E-01
 cg2d: Sum(rhs),rhsMax =  -9.06774655362597E-14  5.04022170218064E-01
 cg2d: Sum(rhs),rhsMax =  -8.48487946569776E-14  5.04474607021457E-01
 cg2d: Sum(rhs),rhsMax =   2.78652101393106E-13  5.04886833251103E-01
 cg2d: Sum(rhs),rhsMax =   1.88821180913123E-13  5.05297392911746E-01
 cg2d: Sum(rhs),rhsMax =   2.61499155662648E-13  5.05708015877879E-01
 cg2d: Sum(rhs),rhsMax =   1.17392207066302E-13  5.06118721554692E-01
 cg2d: Sum(rhs),rhsMax =   1.53696499971545E-13  5.06530079064104E-01
 cg2d: Sum(rhs),rhsMax =   2.99649194346330E-13  5.06942508528980E-01
 cg2d: Sum(rhs),rhsMax =   2.15744089260284E-13  5.07356706585224E-01
 cg2d: Sum(rhs),rhsMax =  -3.63223340293928E-13  5.07772323825888E-01
 cg2d: Sum(rhs),rhsMax =   3.01383917822307E-13  5.08190255342584E-01
 cg2d: Sum(rhs),rhsMax =  -2.00117700188684E-14  5.08610409175510E-01
 cg2d: Sum(rhs),rhsMax =  -1.01030295240889E-14  5.09032826942032E-01
 cg2d: Sum(rhs),rhsMax =   7.80625564189563E-14  5.09457567875005E-01
 cg2d: Sum(rhs),rhsMax =  -3.70023456319757E-13  5.09884545977349E-01
 cg2d: Sum(rhs),rhsMax =  -2.65759636519647E-13  5.10312855544099E-01
 cg2d: Sum(rhs),rhsMax =   5.75636760480336E-13  5.10741745554624E-01
 cg2d: Sum(rhs),rhsMax =   1.18266507698195E-13  5.11170950680572E-01
 cg2d: Sum(rhs),rhsMax =  -1.03278496865755E-13  5.11600209443426E-01
 cg2d: Sum(rhs),rhsMax =   1.14089293568043E-13  5.12029078909378E-01
 cg2d: Sum(rhs),rhsMax =   3.27488036688806E-13  5.12457417939783E-01
 cg2d: Sum(rhs),rhsMax =   3.57630591807379E-14  5.12884904290224E-01
 cg2d: Sum(rhs),rhsMax =   3.69995700744141E-13  5.13311153177297E-01
 cg2d: Sum(rhs),rhsMax =   1.73888681231915E-14  5.13735835635042E-01
 cg2d: Sum(rhs),rhsMax =   1.86101134502792E-13  5.14158679853784E-01
 cg2d: Sum(rhs),rhsMax =  -2.39488984199454E-13  5.14579472976091E-01
 cg2d: Sum(rhs),rhsMax =   2.87894708073111E-13  5.14998016179786E-01
 cg2d: Sum(rhs),rhsMax =  -1.51254009317370E-13  5.15414139128309E-01
 cg2d: Sum(rhs),rhsMax =  -2.95874436062604E-14  5.15827730563151E-01
 cg2d: Sum(rhs),rhsMax =   1.48880907602233E-13  5.16238718419763E-01
 cg2d: Sum(rhs),rhsMax =   2.70061750740069E-14  5.16647091343005E-01
 cg2d: Sum(rhs),rhsMax =  -4.80865347540771E-14  5.17052871185364E-01
 cg2d: Sum(rhs),rhsMax =  -1.74860126378462E-15  5.17456127390386E-01
 cg2d: Sum(rhs),rhsMax =  -3.29333782467245E-13  5.17856940919200E-01
 cg2d: Sum(rhs),rhsMax =   3.27238236508265E-14  5.18255470537142E-01
 cg2d: Sum(rhs),rhsMax =  -3.25933724454330E-13  5.18651889722951E-01
 cg2d: Sum(rhs),rhsMax =   1.12229670001796E-13  5.19045895103789E-01
 cg2d: Sum(rhs),rhsMax =   1.41886502547095E-13  5.19437130592557E-01
 cg2d: Sum(rhs),rhsMax =   2.04530836711569E-13  5.19825933328626E-01
 cg2d: Sum(rhs),rhsMax =   1.52489132432265E-13  5.20212623123490E-01
 cg2d: Sum(rhs),rhsMax =   3.41782158130854E-13  5.20597543298286E-01
 cg2d: Sum(rhs),rhsMax =   4.26880752968373E-14  5.20981088412450E-01
 cg2d: Sum(rhs),rhsMax =   2.55920284963906E-13  5.21363589939161E-01
 cg2d: Sum(rhs),rhsMax =  -1.60593760512029E-13  5.21745110872993E-01
 cg2d: Sum(rhs),rhsMax =   1.14658282868163E-13  5.22126342315807E-01
 cg2d: Sum(rhs),rhsMax =   1.13381526389844E-13  5.22507630210628E-01
 cg2d: Sum(rhs),rhsMax =   1.62411750714853E-13  5.22888552214978E-01
 cg2d: Sum(rhs),rhsMax =  -6.97081281586520E-14  5.23271001959435E-01
 cg2d: Sum(rhs),rhsMax =   1.85490511839248E-13  5.23653745239339E-01
 cg2d: Sum(rhs),rhsMax =   1.77247105881406E-13  5.24037304948576E-01
 cg2d: Sum(rhs),rhsMax =  -4.48655002038834E-13  5.24421265693546E-01
 cg2d: Sum(rhs),rhsMax =   2.80178658051966E-13  5.24805613938094E-01
 cg2d: Sum(rhs),rhsMax =  -3.00301450373297E-13  5.25190261303091E-01
 cg2d: Sum(rhs),rhsMax =  -4.78783679369599E-14  5.25574775722235E-01
 cg2d: Sum(rhs),rhsMax =   6.37462305164149E-13  5.25957626629136E-01
 cg2d: Sum(rhs),rhsMax =  -1.44884104713583E-14  5.26338917283031E-01
 cg2d: Sum(rhs),rhsMax =  -3.14193115968919E-14  5.26718008588574E-01
 cg2d: Sum(rhs),rhsMax =  -2.91433543964104E-16  5.27095016399209E-01
 cg2d: Sum(rhs),rhsMax =  -1.88016269220270E-13  5.27469905887323E-01
 cg2d: Sum(rhs),rhsMax =   1.07691633388640E-13  5.27842613747350E-01
 cg2d: Sum(rhs),rhsMax =  -2.33174590746899E-13  5.28186300518611E-01
 cg2d: Sum(rhs),rhsMax =  -1.76691994369094E-13  5.28505610795092E-01
 cg2d: Sum(rhs),rhsMax =   5.61772850460329E-14  5.28822886542453E-01
 cg2d: Sum(rhs),rhsMax =  -1.45397582862472E-13  5.29138486878588E-01
 cg2d: Sum(rhs),rhsMax =  -1.06706310454285E-13  5.29452330942048E-01
 cg2d: Sum(rhs),rhsMax =   4.27574642358763E-14  5.29764551177073E-01
 cg2d: Sum(rhs),rhsMax =   1.99618099827603E-13  5.30075174726148E-01
 cg2d: Sum(rhs),rhsMax =   8.70831184940357E-14  5.30384185440162E-01
 cg2d: Sum(rhs),rhsMax =   9.61036805691151E-14  5.30691883972786E-01
 cg2d: Sum(rhs),rhsMax =  -2.73531197692023E-13  5.30998235108167E-01
 cg2d: Sum(rhs),rhsMax =   9.46187572736790E-14  5.31303289072828E-01
 cg2d: Sum(rhs),rhsMax =  -1.26634813746307E-13  5.31606886798851E-01
 cg2d: Sum(rhs),rhsMax =  -1.66991420691431E-13  5.31908874049639E-01
 cg2d: Sum(rhs),rhsMax =  -3.92186283448837E-14  5.32209670942160E-01
 cg2d: Sum(rhs),rhsMax =   2.29607999280290E-13  5.32514848787259E-01
 cg2d: Sum(rhs),rhsMax =   3.72424313610509E-13  5.32817901760356E-01
 cg2d: Sum(rhs),rhsMax =  -4.21315760057439E-13  5.33118914742823E-01
 cg2d: Sum(rhs),rhsMax =  -2.68660094171480E-13  5.33418186444361E-01
 cg2d: Sum(rhs),rhsMax =  -4.39787095629640E-14  5.33715963204087E-01
 cg2d: Sum(rhs),rhsMax =   5.11396480717963E-14  5.34012492341670E-01
 cg2d: Sum(rhs),rhsMax =   1.37723166204751E-13  5.34307924204284E-01
 cg2d: Sum(rhs),rhsMax =   2.05391259555654E-13  5.34602520386148E-01
 cg2d: Sum(rhs),rhsMax =   3.59989815734707E-14  5.34896451201464E-01
 cg2d: Sum(rhs),rhsMax =   2.77652900670944E-13  5.35189898968439E-01
 cg2d: Sum(rhs),rhsMax =  -4.19497769854615E-13  5.35483000934299E-01
 cg2d: Sum(rhs),rhsMax =  -9.18431997121161E-14  5.35775948676633E-01
 cg2d: Sum(rhs),rhsMax =  -3.92602617083071E-14  5.36069333923806E-01
 cg2d: Sum(rhs),rhsMax =  -3.72896158395974E-14  5.36363030217760E-01
 cg2d: Sum(rhs),rhsMax =   1.98327465561476E-13  5.36657024409194E-01
 cg2d: Sum(rhs),rhsMax =  -1.88765669761892E-13  5.36951308451774E-01
 cg2d: Sum(rhs),rhsMax =   1.47770684577608E-13  5.37245805621042E-01
 cg2d: Sum(rhs),rhsMax =  -2.63039590109315E-13  5.37540058748349E-01
 cg2d: Sum(rhs),rhsMax =   2.70755640130460E-14  5.37833235615951E-01
 cg2d: Sum(rhs),rhsMax =  -2.91877633173954E-13  5.38125164783908E-01
 cg2d: Sum(rhs),rhsMax =   1.13423159753268E-13  5.38415733464072E-01
 cg2d: Sum(rhs),rhsMax =   7.61335439136701E-14  5.38704782677078E-01
 cg2d: Sum(rhs),rhsMax =  -1.12854170453147E-13  5.38992203553243E-01
 cg2d: Sum(rhs),rhsMax =   6.70297151117438E-15  5.39277872120041E-01
 cg2d: Sum(rhs),rhsMax =   1.24580901150750E-13  5.39561718291596E-01
 cg2d: Sum(rhs),rhsMax =   3.27196603144841E-13  5.39843663838435E-01
 cg2d: Sum(rhs),rhsMax =  -1.20264909142520E-13  5.40123673561542E-01
 cg2d: Sum(rhs),rhsMax =  -3.60406149368941E-14  5.40401717262816E-01
 cg2d: Sum(rhs),rhsMax =   4.51791382083400E-13  5.40677810425811E-01
 cg2d: Sum(rhs),rhsMax =  -1.33268396318442E-13  5.40922824036695E-01
 cg2d: Sum(rhs),rhsMax =   1.59872115546023E-14  5.41165225710232E-01
 cg2d: Sum(rhs),rhsMax =   2.13426498696379E-13  5.41406040584086E-01
 cg2d: Sum(rhs),rhsMax =  -2.27873275804313E-14  5.41645302551294E-01
 cg2d: Sum(rhs),rhsMax =  -4.89525087132847E-13  5.41883378972654E-01
 cg2d: Sum(rhs),rhsMax =   3.58033047653805E-13  5.42120546097540E-01
 cg2d: Sum(rhs),rhsMax =   1.35905176001927E-13  5.42357484939392E-01
 cg2d: Sum(rhs),rhsMax =  -2.12385664610792E-13  5.42594211091994E-01
 cg2d: Sum(rhs),rhsMax =  -1.10078612891584E-13  5.42830628906182E-01
 cg2d: Sum(rhs),rhsMax =   8.81239525796218E-15  5.43066825123898E-01
 cg2d: Sum(rhs),rhsMax =   5.31796828795450E-14  5.43300583088204E-01
 cg2d: Sum(rhs),rhsMax =  -3.60267371490863E-14  5.43533721993345E-01
 cg2d: Sum(rhs),rhsMax =   1.54334878210705E-13  5.43766460892284E-01
 cg2d: Sum(rhs),rhsMax =   3.57935903139150E-13  5.43999007360215E-01
 cg2d: Sum(rhs),rhsMax =  -1.66380798027888E-13  5.44231533243174E-01
 cg2d: Sum(rhs),rhsMax =  -9.20929998926567E-14  5.44476474256047E-01
 cg2d: Sum(rhs),rhsMax =   3.21770388111986E-13  5.44721772845858E-01
 cg2d: Sum(rhs),rhsMax =  -1.79134485023269E-13  5.44967254549264E-01
 cg2d: Sum(rhs),rhsMax =   2.19935181178244E-13  5.45212445730279E-01
 cg2d: Sum(rhs),rhsMax =  -6.80150380460987E-14  5.45458031125921E-01
 cg2d: Sum(rhs),rhsMax =  -1.38958289319646E-13  5.45703988559824E-01
 cg2d: Sum(rhs),rhsMax =   7.14830972192715E-13  5.45950298258391E-01
 cg2d: Sum(rhs),rhsMax =  -3.71924713249427E-14  5.46196897738329E-01
 cg2d: Sum(rhs),rhsMax =   2.21753171381067E-13  5.46443714272778E-01
 cg2d: Sum(rhs),rhsMax =  -3.11570214073242E-13  5.46690638108788E-01
 cg2d: Sum(rhs),rhsMax =   3.61100038759332E-14  5.46937558527568E-01
 cg2d: Sum(rhs),rhsMax =  -2.47746267945104E-13  5.47183660928936E-01
 cg2d: Sum(rhs),rhsMax =   3.15567016961893E-13  5.47428374045010E-01
 cg2d: Sum(rhs),rhsMax =   1.11036180250323E-13  5.47671541527419E-01
 cg2d: Sum(rhs),rhsMax =  -1.15241149956091E-13  5.47913004684746E-01
 cg2d: Sum(rhs),rhsMax =   1.27370336500121E-13  5.48152630848697E-01
 cg2d: Sum(rhs),rhsMax =   4.03149735817010E-14  5.48390310913297E-01
 cg2d: Sum(rhs),rhsMax =   2.20851115173559E-13  5.48625956921978E-01
 cg2d: Sum(rhs),rhsMax =  -1.31866739749853E-13  5.48859501465020E-01
 cg2d: Sum(rhs),rhsMax =   2.84494650060196E-13  5.49090961130960E-01
 cg2d: Sum(rhs),rhsMax =  -1.60690905026684E-13  5.49320428683709E-01
 cg2d: Sum(rhs),rhsMax =   2.53685961126848E-13  5.49547981683878E-01
 cg2d: Sum(rhs),rhsMax =   4.77534678466895E-14  5.49773353810320E-01
 cg2d: Sum(rhs),rhsMax =   5.40900657597376E-13  5.49996747754052E-01
 cg2d: Sum(rhs),rhsMax =  -1.53807522274008E-13  5.50218249779570E-01
 cg2d: Sum(rhs),rhsMax =   2.80747647352086E-14  5.50437955599013E-01
 cg2d: Sum(rhs),rhsMax =   5.33781352451967E-13  5.50655976668118E-01
 cg2d: Sum(rhs),rhsMax =  -2.23987495218125E-14  5.50872450893897E-01
 cg2d: Sum(rhs),rhsMax =  -8.59728954694106E-14  5.51087410818032E-01
 cg2d: Sum(rhs),rhsMax =   5.46507283871733E-14  5.51300988972178E-01
 cg2d: Sum(rhs),rhsMax =   1.99770755493489E-13  5.51513461228005E-01
 cg2d: Sum(rhs),rhsMax =   4.91051643791707E-13  5.51724871203111E-01
 cg2d: Sum(rhs),rhsMax =   4.56426563211210E-13  5.51934741570209E-01
 cg2d: Sum(rhs),rhsMax =   7.46624984060418E-15  5.52142799446973E-01
 cg2d: Sum(rhs),rhsMax =  -1.26579302595076E-13  5.52349224898529E-01
 cg2d: Sum(rhs),rhsMax =  -5.77926595468625E-13  5.52554221996941E-01
 cg2d: Sum(rhs),rhsMax =  -4.76216288625153E-13  5.52757997071949E-01
 cg2d: Sum(rhs),rhsMax =  -1.98230321046822E-13  5.52960760662925E-01
 cg2d: Sum(rhs),rhsMax =  -2.74572031777609E-13  5.53162721191024E-01
 cg2d: Sum(rhs),rhsMax =  -2.33674191107980E-13  5.53364079273014E-01
 cg2d: Sum(rhs),rhsMax =   1.19862453296093E-13  5.53565078194068E-01
 cg2d: Sum(rhs),rhsMax =  -2.22044604925031E-14  5.53765904682227E-01
 cg2d: Sum(rhs),rhsMax =   1.82701076489877E-13  5.53966741238659E-01
 cg2d: Sum(rhs),rhsMax =   8.35859159664665E-14  5.54167706756259E-01
 cg2d: Sum(rhs),rhsMax =  -4.52693438290908E-14  5.54368502842198E-01
 cg2d: Sum(rhs),rhsMax =   1.91929805382074E-13  5.54569460711636E-01
 cg2d: Sum(rhs),rhsMax =  -4.68236560635660E-14  5.54631526539359E-01
 cg2d: Sum(rhs),rhsMax =  -2.50896525777478E-13  5.54691680037316E-01
 cg2d: Sum(rhs),rhsMax =  -3.51663143050018E-14  5.54753425222921E-01
 cg2d: Sum(rhs),rhsMax =  -2.71449529520851E-14  5.54811248767991E-01
 cg2d: Sum(rhs),rhsMax =   1.25482957358258E-13  5.54867994372695E-01
 cg2d: Sum(rhs),rhsMax =   1.11993747609063E-13  5.54923554958068E-01
 cg2d: Sum(rhs),rhsMax =   1.88779547549700E-13  5.54977766539276E-01
 cg2d: Sum(rhs),rhsMax =   5.92081939032596E-13  5.55030283824030E-01
 cg2d: Sum(rhs),rhsMax =   1.13117848421496E-13  5.55080952853342E-01
 cg2d: Sum(rhs),rhsMax =  -1.30173649637300E-13  5.55129448714147E-01
 cg2d: Sum(rhs),rhsMax =   3.41116024316079E-13  5.55175659937586E-01
 cg2d: Sum(rhs),rhsMax =   1.71668235182665E-14  5.55219329150331E-01
 cg2d: Sum(rhs),rhsMax =  -2.10387263166467E-13  5.55260269192374E-01
 cg2d: Sum(rhs),rhsMax =   7.82290898726501E-14  5.55298275027462E-01
 cg2d: Sum(rhs),rhsMax =   3.78863607153335E-14  5.55333218126028E-01
 cg2d: Sum(rhs),rhsMax =   2.55198639997900E-13  5.55364985788521E-01
 cg2d: Sum(rhs),rhsMax =  -3.03923552991137E-15  5.55393477910572E-01
 cg2d: Sum(rhs),rhsMax =   4.51860771022439E-14  5.55418516155768E-01
 cg2d: Sum(rhs),rhsMax =  -3.49484330364191E-13  5.55440001375146E-01
 cg2d: Sum(rhs),rhsMax =   6.47815134868779E-14  5.55458109005038E-01
 cg2d: Sum(rhs),rhsMax =   3.29986038494212E-13  5.55472967760580E-01
 cg2d: Sum(rhs),rhsMax =   2.75057754350883E-13  5.55484717370946E-01
 cg2d: Sum(rhs),rhsMax =   2.31065167000111E-14  5.55493558340091E-01
 cg2d: Sum(rhs),rhsMax =   1.46813117218869E-13  5.55499692285498E-01
 cg2d: Sum(rhs),rhsMax =   2.41903719278014E-13  5.55502733925935E-01
 cg2d: Sum(rhs),rhsMax =  -9.00390872971002E-14  5.55502462447800E-01
 cg2d: Sum(rhs),rhsMax =  -7.70356001211780E-14  5.55499213469289E-01
 cg2d: Sum(rhs),rhsMax =   6.97913948854989E-14  5.55493351491883E-01
 cg2d: Sum(rhs),rhsMax =   1.49186218934005E-14  5.55485310242818E-01
 cg2d: Sum(rhs),rhsMax =   9.14129882900738E-14  5.55475448752790E-01
 cg2d: Sum(rhs),rhsMax =  -1.57887591889505E-13  5.55464204518574E-01
 cg2d: Sum(rhs),rhsMax =  -1.03347885804794E-13  5.55451958436487E-01
 cg2d: Sum(rhs),rhsMax =  -2.41098807585161E-13  5.55439107602036E-01
 cg2d: Sum(rhs),rhsMax =   2.77874945275869E-13  5.55425942631711E-01
 cg2d: Sum(rhs),rhsMax =   3.94753674193282E-13  5.55412815397708E-01
 cg2d: Sum(rhs),rhsMax =   2.47149523069368E-13  5.55399949025527E-01
 cg2d: Sum(rhs),rhsMax =  -1.59219859519055E-13  5.55387560538280E-01
 cg2d: Sum(rhs),rhsMax =   1.93511873192165E-13  5.55375715271880E-01
 cg2d: Sum(rhs),rhsMax =   3.62043728330264E-13  5.55364467429486E-01
 cg2d: Sum(rhs),rhsMax =  -7.90756349289268E-14  5.55353869661473E-01
 cg2d: Sum(rhs),rhsMax =   1.79301018476963E-13  5.55343919998439E-01
 cg2d: Sum(rhs),rhsMax =   5.03458386091893E-13  5.55333930797353E-01
 cg2d: Sum(rhs),rhsMax =  -8.43491942958963E-14  5.55323115388871E-01
 cg2d: Sum(rhs),rhsMax =  -5.22581977691061E-13  5.55311223708464E-01
 cg2d: Sum(rhs),rhsMax =   1.93817184523937E-13  5.55298066313609E-01
 cg2d: Sum(rhs),rhsMax =  -2.92404989110651E-14  5.55283376121099E-01
 cg2d: Sum(rhs),rhsMax =  -9.01084762361393E-14  5.55266944870133E-01
 cg2d: Sum(rhs),rhsMax =   5.40748001931490E-13  5.55248506583960E-01
 cg2d: Sum(rhs),rhsMax =   2.51701437470331E-13  5.55227867173928E-01
 cg2d: Sum(rhs),rhsMax =   3.76920716860241E-14  5.55204792093781E-01
 cg2d: Sum(rhs),rhsMax =   5.22637488842292E-14  5.55179134056518E-01
 cg2d: Sum(rhs),rhsMax =   8.18789480661053E-14  5.55150736397247E-01
 cg2d: Sum(rhs),rhsMax =   7.19840853591336E-14  5.55119470664498E-01
 cg2d: Sum(rhs),rhsMax =  -1.23595578216396E-13  5.55085207566704E-01
 cg2d: Sum(rhs),rhsMax =   2.82024403830405E-13  5.55047930260352E-01
 cg2d: Sum(rhs),rhsMax =  -2.82038281618213E-13  5.55007592774248E-01
 cg2d: Sum(rhs),rhsMax =  -1.47465373245836E-13  5.54964242472850E-01
 cg2d: Sum(rhs),rhsMax =   2.07056594092592E-14  5.54917917887624E-01
 cg2d: Sum(rhs),rhsMax =  -1.20486953747445E-13  5.54868732312618E-01
 cg2d: Sum(rhs),rhsMax =   1.17336695915071E-13  5.54816806347922E-01
 cg2d: Sum(rhs),rhsMax =  -4.93355356567804E-14  5.54762317027363E-01
 cg2d: Sum(rhs),rhsMax =   4.24493773465429E-13  5.54705437100108E-01
 cg2d: Sum(rhs),rhsMax =  -1.33226762955019E-15  5.54646208272881E-01
 cg2d: Sum(rhs),rhsMax =   3.81375486746549E-13  5.54583854066250E-01
 cg2d: Sum(rhs),rhsMax =  -1.61690105748846E-13  5.54518670764930E-01
 cg2d: Sum(rhs),rhsMax =  -5.79147840795713E-13  5.54450986526778E-01
 cg2d: Sum(rhs),rhsMax =   1.68726144167408E-13  5.54381177074630E-01
 cg2d: Sum(rhs),rhsMax =   3.13207793034564E-13  5.54309604341013E-01
 cg2d: Sum(rhs),rhsMax =   1.19904086659517E-14  5.54236669475704E-01
 cg2d: Sum(rhs),rhsMax =  -8.87206974553578E-14  5.54162750664307E-01
 cg2d: Sum(rhs),rhsMax =  -9.40914013369820E-14  5.54088229346890E-01
 cg2d: Sum(rhs),rhsMax =   1.45994327738208E-13  5.54013436119091E-01
 cg2d: Sum(rhs),rhsMax =   1.54362633786320E-13  5.53938705238165E-01
 cg2d: Sum(rhs),rhsMax =  -1.81965553736063E-13  5.53864322717509E-01
 cg2d: Sum(rhs),rhsMax =   2.38697950294409E-14  5.53790536458455E-01
 cg2d: Sum(rhs),rhsMax =   4.46115366870004E-13  5.53717518198022E-01
 cg2d: Sum(rhs),rhsMax =   2.00339744793609E-13  5.53645364700710E-01
 cg2d: Sum(rhs),rhsMax =  -4.53193038651989E-13  5.53574146613255E-01
 cg2d: Sum(rhs),rhsMax =  -1.57915347465121E-13  5.53503886533763E-01
 cg2d: Sum(rhs),rhsMax =  -1.51961776495568E-13  5.53434546726146E-01
 cg2d: Sum(rhs),rhsMax =  -2.75016120987459E-13  5.53364885832981E-01
 cg2d: Sum(rhs),rhsMax =  -2.29927188399870E-13  5.53294657462287E-01
 cg2d: Sum(rhs),rhsMax =   1.34600663947992E-13  5.53223703502113E-01
 cg2d: Sum(rhs),rhsMax =   1.66852642813353E-13  5.53151866205358E-01
 cg2d: Sum(rhs),rhsMax =  -2.26624274901610E-14  5.53078969976810E-01
 cg2d: Sum(rhs),rhsMax =   5.47895062652515E-14  5.53004858222671E-01
 cg2d: Sum(rhs),rhsMax =   2.36560770972005E-13  5.52929375157337E-01
 cg2d: Sum(rhs),rhsMax =  -1.55014889813287E-13  5.52852381321088E-01
 cg2d: Sum(rhs),rhsMax =   8.66529070719935E-14  5.52773761411126E-01
 cg2d: Sum(rhs),rhsMax =  -3.13762904546877E-13  5.52693418285358E-01
 cg2d: Sum(rhs),rhsMax =   4.55246951247545E-13  5.52611499988788E-01
 cg2d: Sum(rhs),rhsMax =   1.17739151761498E-13  5.52527770370883E-01
 cg2d: Sum(rhs),rhsMax =  -3.98500676901392E-13  5.52442203081534E-01
 cg2d: Sum(rhs),rhsMax =   2.61429766723609E-13  5.52354847142885E-01
 cg2d: Sum(rhs),rhsMax =  -1.31381017176579E-13  5.52265729596002E-01
 cg2d: Sum(rhs),rhsMax =   1.82714954277685E-13  5.52174956825074E-01
 cg2d: Sum(rhs),rhsMax =  -2.48412401759879E-13  5.52082642943112E-01
 cg2d: Sum(rhs),rhsMax =   3.29666849374632E-13  5.51988966355429E-01
 cg2d: Sum(rhs),rhsMax =   2.96984659087229E-15  5.51894068156543E-01
 cg2d: Sum(rhs),rhsMax =  -1.65673030849689E-13  5.51798123520148E-01
 cg2d: Sum(rhs),rhsMax =   2.85466095206743E-14  5.51701441210572E-01
 cg2d: Sum(rhs),rhsMax =   1.45522482952742E-13  5.51603432709929E-01
 cg2d: Sum(rhs),rhsMax =  -3.30555027794333E-13  5.51503667196521E-01
 cg2d: Sum(rhs),rhsMax =  -1.33282274106250E-13  5.51402473705771E-01
 cg2d: Sum(rhs),rhsMax =  -1.62772573197856E-13  5.51300151941699E-01
 cg2d: Sum(rhs),rhsMax =   2.59042787220665E-13  5.51196981216184E-01
 cg2d: Sum(rhs),rhsMax =  -4.84390305643956E-13  5.51093274853936E-01
 cg2d: Sum(rhs),rhsMax =   3.73867603542521E-14  5.50989322399655E-01
 cg2d: Sum(rhs),rhsMax =  -7.38992200766120E-14  5.50885426584415E-01
 cg2d: Sum(rhs),rhsMax =  -1.24983356997177E-13  5.50781866465050E-01
 cg2d: Sum(rhs),rhsMax =   6.97358837342676E-14  5.50678864052855E-01
 cg2d: Sum(rhs),rhsMax =   2.38170594357712E-13  5.50576521237723E-01
 cg2d: Sum(rhs),rhsMax =  -1.48908663177849E-14  5.50475071998617E-01
 cg2d: Sum(rhs),rhsMax =   1.91957560957690E-13  5.50374623115779E-01
 cg2d: Sum(rhs),rhsMax =   1.70238823038460E-13  5.50275233008494E-01
 cg2d: Sum(rhs),rhsMax =  -5.48311396286749E-14  5.50176958027710E-01
 cg2d: Sum(rhs),rhsMax =   9.11354325339175E-14  5.50079718915774E-01
 cg2d: Sum(rhs),rhsMax =  -3.56117912936327E-13  5.49983421139366E-01
 cg2d: Sum(rhs),rhsMax =  -7.72437669382953E-14  5.49887456401476E-01
 cg2d: Sum(rhs),rhsMax =  -1.05165876007618E-13  5.49790865075945E-01
 cg2d: Sum(rhs),rhsMax =  -1.40110145707695E-13  5.49693431972612E-01
 cg2d: Sum(rhs),rhsMax =  -2.57488474986189E-13  5.49594935162143E-01
 cg2d: Sum(rhs),rhsMax =  -4.99350560900780E-13  5.49495171293454E-01
 cg2d: Sum(rhs),rhsMax =  -9.25648446781224E-14  5.49393937992284E-01
 cg2d: Sum(rhs),rhsMax =   1.35128019884689E-13  5.49291051616130E-01
 cg2d: Sum(rhs),rhsMax =  -5.00988139862102E-14  5.49186354974027E-01
 cg2d: Sum(rhs),rhsMax =   2.85091394935932E-13  5.49079722840416E-01
 cg2d: Sum(rhs),rhsMax =  -8.25173263052648E-14  5.48969947919606E-01
 cg2d: Sum(rhs),rhsMax =   3.22561422017031E-13  5.48858075109211E-01
 cg2d: Sum(rhs),rhsMax =   2.73100986269981E-13  5.48744139964395E-01
 cg2d: Sum(rhs),rhsMax =  -1.32810429320784E-14  5.48628273614822E-01
 cg2d: Sum(rhs),rhsMax =   1.23859256184744E-13  5.48510396206439E-01
 cg2d: Sum(rhs),rhsMax =  -2.64482880041328E-13  5.48390858870621E-01
 cg2d: Sum(rhs),rhsMax =  -1.40429334827274E-13  5.48293095018269E-01
 cg2d: Sum(rhs),rhsMax =   3.46431217046472E-13  5.48194144878679E-01
 cg2d: Sum(rhs),rhsMax =   3.53356233162572E-13  5.48093284859611E-01
 cg2d: Sum(rhs),rhsMax =  -1.77233228093598E-13  5.47990981018905E-01
 cg2d: Sum(rhs),rhsMax =  -3.08059133757865E-13  5.47888025301818E-01
 cg2d: Sum(rhs),rhsMax =   3.03923552991137E-15  5.47783833787447E-01
 cg2d: Sum(rhs),rhsMax =   4.49543180458534E-13  5.47678226533878E-01
 cg2d: Sum(rhs),rhsMax =  -1.86031745563753E-13  5.47570525895904E-01
 cg2d: Sum(rhs),rhsMax =   2.28664309709359E-13  5.47460967342075E-01
 cg2d: Sum(rhs),rhsMax =  -4.28795887685851E-13  5.47349892893945E-01
 cg2d: Sum(rhs),rhsMax =   2.26305085782030E-13  5.47237582208328E-01
 cg2d: Sum(rhs),rhsMax =   2.20504170478364E-13  5.47124401094815E-01
 cg2d: Sum(rhs),rhsMax =   1.70724545611733E-13  5.47010709154281E-01
 cg2d: Sum(rhs),rhsMax =  -1.76456071976361E-13  5.46896877427187E-01
 cg2d: Sum(rhs),rhsMax =  -3.51663143050018E-14  5.46783273906607E-01
 cg2d: Sum(rhs),rhsMax =   9.12048214729566E-14  5.46670223214231E-01
 cg2d: Sum(rhs),rhsMax =   1.45286560560010E-13  5.46558023988108E-01
 cg2d: Sum(rhs),rhsMax =  -1.43676737174303E-13  5.46446916966425E-01
 cg2d: Sum(rhs),rhsMax =   1.96384575268382E-13  5.46337147701720E-01
 cg2d: Sum(rhs),rhsMax =   1.43690614962111E-13  5.46228874631326E-01
 cg2d: Sum(rhs),rhsMax =  -2.99343883014558E-14  5.46122217947402E-01
 cg2d: Sum(rhs),rhsMax =  -1.79564696445311E-13  5.46017245648473E-01
 cg2d: Sum(rhs),rhsMax =  -3.44030359755720E-13  5.45913950491312E-01
 cg2d: Sum(rhs),rhsMax =   3.00592883917261E-13  5.45812303005365E-01
 cg2d: Sum(rhs),rhsMax =   7.75352004822594E-14  5.45711454666298E-01
 cg2d: Sum(rhs),rhsMax =   1.92679205923696E-13  5.45610739887388E-01
 cg2d: Sum(rhs),rhsMax =   2.91142110420139E-13  5.45511258436107E-01
 cg2d: Sum(rhs),rhsMax =  -1.69739222677379E-13  5.45411697573397E-01
 cg2d: Sum(rhs),rhsMax =   1.78246306603569E-13  5.45311894992306E-01
 cg2d: Sum(rhs),rhsMax =  -2.26624274901610E-13  5.45211676330381E-01
 cg2d: Sum(rhs),rhsMax =  -1.69045333286988E-13  5.45110880348600E-01
 cg2d: Sum(rhs),rhsMax =   2.03642658291869E-13  5.45009356472569E-01
 cg2d: Sum(rhs),rhsMax =  -5.45952172359421E-14  5.44906976391624E-01
 cg2d: Sum(rhs),rhsMax =  -1.09079412169422E-13  5.44803628234846E-01
 cg2d: Sum(rhs),rhsMax =  -2.65593103065953E-13  5.44699236005144E-01
 cg2d: Sum(rhs),rhsMax =  -3.05436231862188E-13  5.44593734980935E-01
 cg2d: Sum(rhs),rhsMax =  -1.35960687153158E-13  5.44487096425975E-01
 cg2d: Sum(rhs),rhsMax =  -1.39860345527154E-13  5.44379337771677E-01
 cg2d: Sum(rhs),rhsMax =  -9.77135039548216E-14  5.44270483966031E-01
 cg2d: Sum(rhs),rhsMax =  -2.36116681762155E-13  5.44160611762264E-01
 cg2d: Sum(rhs),rhsMax =  -1.04485864405035E-13  5.44049801209884E-01
 cg2d: Sum(rhs),rhsMax =  -1.17142406885762E-13  5.43938162179408E-01
 cg2d: Sum(rhs),rhsMax =  -3.83859610764148E-13  5.43825698970685E-01
 cg2d: Sum(rhs),rhsMax =  -3.01356162246691E-13  5.43712697921228E-01
 cg2d: Sum(rhs),rhsMax =  -2.44262943205342E-13  5.43599097288015E-01
 cg2d: Sum(rhs),rhsMax =   3.98264754508659E-13  5.43484168109857E-01
 cg2d: Sum(rhs),rhsMax =   4.41535696893425E-13  5.43368131951287E-01
 cg2d: Sum(rhs),rhsMax =  -3.37577188425087E-13  5.43251247199097E-01
 cg2d: Sum(rhs),rhsMax =  -1.54654067330284E-13  5.43133794554364E-01
 cg2d: Sum(rhs),rhsMax =   1.11993747609063E-13  5.43016069522594E-01
 cg2d: Sum(rhs),rhsMax =   5.78828651676133E-13  5.42898356895193E-01
 cg2d: Sum(rhs),rhsMax =  -1.14380727112007E-13  5.42780861405695E-01
 cg2d: Sum(rhs),rhsMax =  -3.03465585993479E-13  5.42663947003629E-01
 cg2d: Sum(rhs),rhsMax =   3.39131500659562E-13  5.42547896256154E-01
 cg2d: Sum(rhs),rhsMax =  -1.08427156142454E-13  5.42432882942020E-01
 cg2d: Sum(rhs),rhsMax =   1.92915128316429E-13  5.42319117361854E-01
 cg2d: Sum(rhs),rhsMax =   4.18748369312993E-13  5.42206743745580E-01
 cg2d: Sum(rhs),rhsMax =   2.26499374811340E-13  5.42095876032986E-01
 cg2d: Sum(rhs),rhsMax =  -1.37043154602168E-13  5.41986579424459E-01
 cg2d: Sum(rhs),rhsMax =  -2.91419666176296E-13  5.41878878814724E-01
 cg2d: Sum(rhs),rhsMax =   1.61579083446384E-13  5.41772778685313E-01
 cg2d: Sum(rhs),rhsMax =  -3.99125177352744E-14  5.41668212731043E-01
 cg2d: Sum(rhs),rhsMax =  -1.09218190047500E-13  5.41564971440439E-01
 cg2d: Sum(rhs),rhsMax =  -4.11837230984702E-13  5.41461865414574E-01
 cg2d: Sum(rhs),rhsMax =  -1.31838984174237E-15  5.41358720569654E-01
 cg2d: Sum(rhs),rhsMax =  -2.07486805514634E-13  5.41255219485865E-01
 cg2d: Sum(rhs),rhsMax =   3.94129173741931E-14  5.41151332091147E-01
 cg2d: Sum(rhs),rhsMax =   1.46604950401752E-13  5.41046881020403E-01
 cg2d: Sum(rhs),rhsMax =  -9.33558785831679E-14  5.40941771215864E-01
 cg2d: Sum(rhs),rhsMax =   2.47732390157296E-13  5.40835897437788E-01
 cg2d: Sum(rhs),rhsMax =  -2.43249864695372E-13  5.40729187582371E-01
 cg2d: Sum(rhs),rhsMax =  -5.73457947794509E-13  5.40621574131178E-01
 cg2d: Sum(rhs),rhsMax =   5.87030424270552E-15  5.40512982318179E-01
 cg2d: Sum(rhs),rhsMax =  -2.07597827817096E-13  5.40403399331589E-01
 cg2d: Sum(rhs),rhsMax =   1.86267667956486E-13  5.40293563448767E-01
 cg2d: Sum(rhs),rhsMax =   8.08519917683270E-14  5.40185917696514E-01
 cg2d: Sum(rhs),rhsMax =   2.25944263299027E-13  5.40001675820083E-01
 cg2d: Sum(rhs),rhsMax =   1.42941214420489E-13  5.39820825249590E-01
 cg2d: Sum(rhs),rhsMax =   1.13006826119033E-13  5.39642392719055E-01
 cg2d: Sum(rhs),rhsMax =   1.83686399424232E-13  5.39465647656873E-01
 cg2d: Sum(rhs),rhsMax =   6.12981887471165E-14  5.39292459253203E-01
 cg2d: Sum(rhs),rhsMax =   6.21724893790088E-15  5.39122279141452E-01
 cg2d: Sum(rhs),rhsMax =   1.47798440153224E-13  5.38955634055556E-01
 cg2d: Sum(rhs),rhsMax =  -1.12340692304258E-13  5.38792138332751E-01
 cg2d: Sum(rhs),rhsMax =   6.20614670765463E-14  5.38632254543752E-01
 cg2d: Sum(rhs),rhsMax =  -2.21975215985992E-13  5.38476779178579E-01
 cg2d: Sum(rhs),rhsMax =  -1.68892677621102E-14  5.38326549221297E-01
 cg2d: Sum(rhs),rhsMax =  -1.42219569454483E-13  5.38182520231286E-01
 cg2d: Sum(rhs),rhsMax =  -1.72917236085368E-14  5.38045715431939E-01
 cg2d: Sum(rhs),rhsMax =   1.06095687790742E-13  5.37917373318278E-01
 cg2d: Sum(rhs),rhsMax =  -7.14012182712054E-14  5.37796326477903E-01
 cg2d: Sum(rhs),rhsMax =  -1.86545223712642E-13  5.37677039402152E-01
 cg2d: Sum(rhs),rhsMax =   3.17801340798951E-14  5.37559417950562E-01
 cg2d: Sum(rhs),rhsMax =  -1.74582570622306E-13  5.37443639757105E-01
 cg2d: Sum(rhs),rhsMax =   3.68149954965702E-13  5.37330314879626E-01
 cg2d: Sum(rhs),rhsMax =  -2.98039370960623E-13  5.37218955091345E-01
 cg2d: Sum(rhs),rhsMax =   4.91690022030866E-14  5.37109794128242E-01
 cg2d: Sum(rhs),rhsMax =  -2.57016630200724E-14  5.37002985843750E-01
 cg2d: Sum(rhs),rhsMax =   3.07698311274862E-13  5.36898498455564E-01
 cg2d: Sum(rhs),rhsMax =   2.74585909565417E-13  5.36795737800069E-01
 cg2d: Sum(rhs),rhsMax =  -8.89288642724750E-14  5.36695185736203E-01
 cg2d: Sum(rhs),rhsMax =   2.19615992058664E-13  5.36595788407495E-01
 cg2d: Sum(rhs),rhsMax =  -5.58997292898766E-14  5.36497135660590E-01
 cg2d: Sum(rhs),rhsMax =   2.35506059098611E-14  5.36399089948127E-01
 cg2d: Sum(rhs),rhsMax =   2.40835129616812E-13  5.36301306278218E-01
 cg2d: Sum(rhs),rhsMax =  -1.02556851899749E-13  5.36203600857529E-01
 cg2d: Sum(rhs),rhsMax =   5.32324184732147E-13  5.36105619582446E-01
 cg2d: Sum(rhs),rhsMax =  -2.04544714499377E-13  5.36007842430832E-01
 cg2d: Sum(rhs),rhsMax =   3.91034427060788E-13  5.35908335567807E-01
 cg2d: Sum(rhs),rhsMax =  -4.64905891561784E-15  5.35807661978066E-01
 cg2d: Sum(rhs),rhsMax =  -7.63597518549375E-13  5.35705807159959E-01
 cg2d: Sum(rhs),rhsMax =   6.35602681597902E-15  5.35602412497212E-01
 cg2d: Sum(rhs),rhsMax =   3.98445165750161E-13  5.35497547218657E-01
 cg2d: Sum(rhs),rhsMax =   3.20077297999433E-13  5.35391032592264E-01
 cg2d: Sum(rhs),rhsMax =   2.45525821895853E-13  5.35283126796189E-01
 cg2d: Sum(rhs),rhsMax =   6.02948246886115E-13  5.35173903785646E-01
 cg2d: Sum(rhs),rhsMax =  -2.43124964605101E-13  5.35063527940691E-01
 cg2d: Sum(rhs),rhsMax =  -7.68135555162530E-14  5.34952183247713E-01
 cg2d: Sum(rhs),rhsMax =  -3.65735219887142E-13  5.34840093926825E-01
 cg2d: Sum(rhs),rhsMax =   2.27637353411581E-13  5.34727493210379E-01
 cg2d: Sum(rhs),rhsMax =  -3.13277181973604E-13  5.34614106352523E-01
 cg2d: Sum(rhs),rhsMax =   2.99205105136480E-14  5.34499703669009E-01
 cg2d: Sum(rhs),rhsMax =   4.23452939379843E-13  5.34384563828901E-01
 cg2d: Sum(rhs),rhsMax =  -3.42323391855359E-13  5.34269040668453E-01
 cg2d: Sum(rhs),rhsMax =   2.71227484915926E-13  5.34153495421149E-01
 cg2d: Sum(rhs),rhsMax =   4.83335593770562E-13  5.34038298018568E-01
 cg2d: Sum(rhs),rhsMax =  -1.38986044895262E-13  5.33923826891073E-01
 cg2d: Sum(rhs),rhsMax =   4.05023237171065E-13  5.33810315837008E-01
 cg2d: Sum(rhs),rhsMax =  -8.71663852208826E-14  5.33697897882681E-01
 cg2d: Sum(rhs),rhsMax =  -1.00572328243231E-13  5.33586885207246E-01
 cg2d: Sum(rhs),rhsMax =   3.55271367880050E-14  5.33477366402499E-01
 cg2d: Sum(rhs),rhsMax =   1.17808540700537E-13  5.33368600370144E-01
 cg2d: Sum(rhs),rhsMax =   3.95308785705595E-13  5.33263872466787E-01
 cg2d: Sum(rhs),rhsMax =  -4.36622960009458E-13  5.33158454524777E-01
 cg2d: Sum(rhs),rhsMax =   3.03770897325251E-13  5.33056971718735E-01
 cg2d: Sum(rhs),rhsMax =   2.88977175522120E-13  5.32953238790268E-01
 cg2d: Sum(rhs),rhsMax =  -2.19754769936742E-13  5.32846520483116E-01
 cg2d: Sum(rhs),rhsMax =   5.57040524817864E-13  5.32743714291467E-01
 cg2d: Sum(rhs),rhsMax =   1.56874513379535E-13  5.32642477798658E-01
 cg2d: Sum(rhs),rhsMax =  -2.57113774715378E-13  5.32542748907530E-01
 cg2d: Sum(rhs),rhsMax =  -5.75234304633909E-14  5.32443643435607E-01
 cg2d: Sum(rhs),rhsMax =   1.08024700296028E-13  5.32345041291293E-01
 cg2d: Sum(rhs),rhsMax =  -2.84258727667464E-13  5.32246683804975E-01
 cg2d: Sum(rhs),rhsMax =   2.20684581719865E-13  5.32147995363589E-01
 cg2d: Sum(rhs),rhsMax =  -9.70890035034699E-14  5.32048747942489E-01
 cg2d: Sum(rhs),rhsMax =   2.71213607128118E-13  5.31948757227544E-01
 cg2d: Sum(rhs),rhsMax =  -1.50213175231784E-13  5.31847864250859E-01
 cg2d: Sum(rhs),rhsMax =   3.70953268102880E-14  5.31745899067908E-01
 cg2d: Sum(rhs),rhsMax =   1.22790666523542E-13  5.31642774135724E-01
 cg2d: Sum(rhs),rhsMax =   7.49816875256215E-14  5.31538425751117E-01
 cg2d: Sum(rhs),rhsMax =  -7.83123565994970E-14  5.31432848992914E-01
 cg2d: Sum(rhs),rhsMax =   1.48270284938690E-13  5.31326067340217E-01
 cg2d: Sum(rhs),rhsMax =   1.67935110262363E-13  5.31218148633762E-01
 cg2d: Sum(rhs),rhsMax =   3.72687991578857E-13  5.31109203734749E-01
 cg2d: Sum(rhs),rhsMax =   3.89577259340967E-13  5.30999375857315E-01
 cg2d: Sum(rhs),rhsMax =   3.19883008970123E-13  5.30888840326384E-01
 cg2d: Sum(rhs),rhsMax =   1.45841672072322E-13  5.30777833808753E-01
 cg2d: Sum(rhs),rhsMax =   3.44169137633799E-15  5.30666348789449E-01
 cg2d: Sum(rhs),rhsMax =  -8.18789480661053E-15  5.30553757188498E-01
 cg2d: Sum(rhs),rhsMax =   1.03306252441371E-13  5.30440302992895E-01
 cg2d: Sum(rhs),rhsMax =   2.37990183116210E-13  5.30326296082540E-01
 cg2d: Sum(rhs),rhsMax =   2.59223198462166E-13  5.30212043943894E-01
 cg2d: Sum(rhs),rhsMax =  -3.08822412087295E-13  5.30097871499836E-01
 cg2d: Sum(rhs),rhsMax =   3.11847769829399E-13  5.29984104624137E-01
 cg2d: Sum(rhs),rhsMax =  -7.65359997600967E-14  5.29871063877536E-01
 cg2d: Sum(rhs),rhsMax =  -2.49425480269849E-13  5.29759054895637E-01
 cg2d: Sum(rhs),rhsMax =  -2.42680875395251E-13  5.29648355507137E-01
 cg2d: Sum(rhs),rhsMax =  -2.27845520228698E-13  5.29539211314883E-01
 cg2d: Sum(rhs),rhsMax =   4.29364876985971E-13  5.29431931785569E-01
 cg2d: Sum(rhs),rhsMax =   1.29757316003065E-13  5.29326415955575E-01
 cg2d: Sum(rhs),rhsMax =   1.41109346429857E-13  5.29223011728917E-01
 cg2d: Sum(rhs),rhsMax =  -1.37972966385291E-13  5.29121679105393E-01
 cg2d: Sum(rhs),rhsMax =   2.12468931337639E-14  5.29022436691523E-01
 cg2d: Sum(rhs),rhsMax =   1.82354131794682E-14  5.28925221794360E-01
 cg2d: Sum(rhs),rhsMax =  -3.81639164714898E-13  5.28829944682725E-01
 cg2d: Sum(rhs),rhsMax =  -1.97203364749043E-14  5.28736415085606E-01
 cg2d: Sum(rhs),rhsMax =  -1.33740241103908E-13  5.28644432271822E-01
 cg2d: Sum(rhs),rhsMax =   3.58657548105157E-13  5.28553660398218E-01
 cg2d: Sum(rhs),rhsMax =  -1.75706671434739E-13  5.28462830496647E-01
 cg2d: Sum(rhs),rhsMax =  -2.99385516377981E-13  5.28371634084977E-01
 cg2d: Sum(rhs),rhsMax =  -6.67826904887647E-13  5.28279765526457E-01
 cg2d: Sum(rhs),rhsMax =   1.66977542903624E-13  5.28187134927512E-01
 cg2d: Sum(rhs),rhsMax =  -1.15185638804860E-14  5.28093361614773E-01
 cg2d: Sum(rhs),rhsMax =   3.01342284458883E-13  5.27998313604457E-01
 cg2d: Sum(rhs),rhsMax =  -1.02709507565635E-13  5.27901829080286E-01
 cg2d: Sum(rhs),rhsMax =   7.79099007530704E-14  5.27803804108866E-01
 cg2d: Sum(rhs),rhsMax =   6.12565553836930E-14  5.27704176675676E-01
 cg2d: Sum(rhs),rhsMax =   2.89782087214974E-13  5.27602939992031E-01
 cg2d: Sum(rhs),rhsMax =   4.35484981409218E-13  5.27500138609582E-01
 cg2d: Sum(rhs),rhsMax =  -1.55958579384219E-13  5.27395887196820E-01
 cg2d: Sum(rhs),rhsMax =  -6.98330282489223E-14  5.27290287451123E-01
 cg2d: Sum(rhs),rhsMax =   5.19750908978267E-13  5.27183542590346E-01
 cg2d: Sum(rhs),rhsMax =   9.80604486500170E-14  5.27075870568398E-01
 cg2d: Sum(rhs),rhsMax =  -5.87960236053675E-13  5.26967529098908E-01
 cg2d: Sum(rhs),rhsMax =  -1.50504608775748E-13  5.26858795596473E-01
 cg2d: Sum(rhs),rhsMax =  -2.86437540353290E-14  5.26749453160760E-01
 cg2d: Sum(rhs),rhsMax =   1.79828374413660E-13  5.26639180777700E-01
 cg2d: Sum(rhs),rhsMax =   1.33990041284449E-13  5.26528305808573E-01
 cg2d: Sum(rhs),rhsMax =   4.21288004481823E-13  5.26417199809272E-01
 cg2d: Sum(rhs),rhsMax =  -2.63122856836162E-13  5.26306247131627E-01
 cg2d: Sum(rhs),rhsMax =  -3.54730134155545E-13  5.26195839219877E-01
 cg2d: Sum(rhs),rhsMax =  -6.98052726733067E-14  5.26086369376423E-01
 cg2d: Sum(rhs),rhsMax =   5.38458166943201E-15  5.25978209561944E-01
 cg2d: Sum(rhs),rhsMax =   6.22626949997596E-13  5.25871723796254E-01
 cg2d: Sum(rhs),rhsMax =   8.47655279301307E-14  5.25767223790303E-01
 cg2d: Sum(rhs),rhsMax =   6.22973894692791E-14  5.25664996927414E-01
 cg2d: Sum(rhs),rhsMax =  -4.06549793829925E-13  5.25565281677227E-01
 cg2d: Sum(rhs),rhsMax =   2.70311550920610E-13  5.25468255065027E-01
 cg2d: Sum(rhs),rhsMax =  -8.72080185843060E-14  5.25374035398800E-01
 cg2d: Sum(rhs),rhsMax =  -1.69100844438219E-13  5.25282667711339E-01
 cg2d: Sum(rhs),rhsMax =   4.17860190893293E-14  5.25194188512151E-01
 cg2d: Sum(rhs),rhsMax =   1.90639171115947E-13  5.25108501230830E-01
 cg2d: Sum(rhs),rhsMax =   2.49078535574654E-13  5.25025491199871E-01
 cg2d: Sum(rhs),rhsMax =  -4.38260538970781E-13  5.24944931010343E-01
 cg2d: Sum(rhs),rhsMax =  -4.23813761862846E-13  5.24866588427312E-01
 cg2d: Sum(rhs),rhsMax =   2.39613884289724E-13  5.24790165728124E-01
 cg2d: Sum(rhs),rhsMax =   2.82399104101216E-13  5.24715268604380E-01
 cg2d: Sum(rhs),rhsMax =   1.20847776230448E-13  5.24638856435208E-01
 cg2d: Sum(rhs),rhsMax =  -2.18158824338843E-14  5.24563578837467E-01
 cg2d: Sum(rhs),rhsMax =   1.05609965217468E-14  5.24488071500690E-01
 cg2d: Sum(rhs),rhsMax =  -9.00390872971002E-14  5.24410062094929E-01
 cg2d: Sum(rhs),rhsMax =   5.02931030155196E-14  5.24333093789306E-01
 cg2d: Sum(rhs),rhsMax =  -2.27123875262691E-13  5.24252706289192E-01
 cg2d: Sum(rhs),rhsMax =  -1.04805053524615E-13  5.24173037824688E-01
 cg2d: Sum(rhs),rhsMax =   8.58202398035246E-14  5.24089580764291E-01
 cg2d: Sum(rhs),rhsMax =  -3.96474519881451E-13  5.24006709280132E-01
 cg2d: Sum(rhs),rhsMax =   2.20753970658905E-13  5.23919879568579E-01
 cg2d: Sum(rhs),rhsMax =  -2.07583950029289E-13  5.23833705349989E-01
 cg2d: Sum(rhs),rhsMax =  -6.83342271656784E-14  5.23743590022526E-01
 cg2d: Sum(rhs),rhsMax =  -7.89229792630408E-14  5.23654419183482E-01
 cg2d: Sum(rhs),rhsMax =  -1.62009294868426E-13  5.23562370388018E-01
 cg2d: Sum(rhs),rhsMax =   1.77219350305791E-14  5.23468796446510E-01
 cg2d: Sum(rhs),rhsMax =  -6.93625712422374E-13  5.23376287380183E-01
 cg2d: Sum(rhs),rhsMax =   1.28383415010092E-13  5.23280402832007E-01
 cg2d: Sum(rhs),rhsMax =  -6.70574706873595E-14  5.23182552372619E-01
 cg2d: Sum(rhs),rhsMax =   4.02164412882655E-13  5.23085695041351E-01
 cg2d: Sum(rhs),rhsMax =  -2.16798801133677E-13  5.22986335685595E-01
 cg2d: Sum(rhs),rhsMax =   2.31981100995426E-13  5.22886952594907E-01
 cg2d: Sum(rhs),rhsMax =   3.69107522324441E-13  5.22786794852880E-01
 cg2d: Sum(rhs),rhsMax =   2.80511724959354E-13  5.22689170271637E-01
 cg2d: Sum(rhs),rhsMax =   3.36231043007729E-13  5.22590714345141E-01
 cg2d: Sum(rhs),rhsMax =  -1.20917165169487E-13  5.22493912222917E-01
 cg2d: Sum(rhs),rhsMax =   1.51018086924637E-13  5.22398818593519E-01
 cg2d: Sum(rhs),rhsMax =  -3.58019169865997E-13  5.22305735450775E-01
 cg2d: Sum(rhs),rhsMax =   1.00322528062691E-13  5.22214988249614E-01
 cg2d: Sum(rhs),rhsMax =   3.74728026386606E-13  5.22126856488674E-01
 cg2d: Sum(rhs),rhsMax =   3.12347370190480E-13  5.22041436047496E-01
 cg2d: Sum(rhs),rhsMax =   1.84963155902551E-13  5.21958931180987E-01
 cg2d: Sum(rhs),rhsMax =   1.35558231306732E-13  5.21879396517189E-01
 cg2d: Sum(rhs),rhsMax =   3.16274784140091E-14  5.21802809464719E-01
 cg2d: Sum(rhs),rhsMax =  -3.14956394298349E-13  5.21729107170401E-01
 cg2d: Sum(rhs),rhsMax =  -2.71740963064815E-13  5.21658154841886E-01
 cg2d: Sum(rhs),rhsMax =   2.81344392227822E-13  5.21589766749908E-01
 cg2d: Sum(rhs),rhsMax =   1.92318383440693E-13  5.21523696106826E-01
 cg2d: Sum(rhs),rhsMax =  -3.01980662698043E-14  5.21459655990150E-01
 cg2d: Sum(rhs),rhsMax =  -3.99305588594245E-13  5.21396990472587E-01
 cg2d: Sum(rhs),rhsMax =   5.64812085990241E-13  5.21334595428531E-01
 cg2d: Sum(rhs),rhsMax =   7.80320252857791E-13  5.21272496686912E-01
 cg2d: Sum(rhs),rhsMax =   7.64652230422769E-13  5.21211754224199E-01
 cg2d: Sum(rhs),rhsMax =   7.63028529249254E-13  5.21150562963222E-01
 cg2d: Sum(rhs),rhsMax =  -1.18932641512970E-13  5.21088720860733E-01
 cg2d: Sum(rhs),rhsMax =   2.57599497288652E-13  5.21026079905903E-01
 cg2d: Sum(rhs),rhsMax =  -2.33868480137289E-13  5.20962517870057E-01
 cg2d: Sum(rhs),rhsMax =  -7.22061299640586E-14  5.20897985097875E-01
 cg2d: Sum(rhs),rhsMax =   4.33653113418586E-13  5.20832444684899E-01
 cg2d: Sum(rhs),rhsMax =  -1.47659662275146E-14  5.20765913286538E-01
 cg2d: Sum(rhs),rhsMax =  -1.13423159753268E-13  5.20698443424776E-01
 cg2d: Sum(rhs),rhsMax =   4.13558076672871E-14  5.20630097317846E-01
 cg2d: Sum(rhs),rhsMax =   2.23807083976624E-13  5.20561035240913E-01
 cg2d: Sum(rhs),rhsMax =  -1.59913748909446E-13  5.20491415110375E-01
 cg2d: Sum(rhs),rhsMax =   2.23432383705813E-14  5.20421163206630E-01
 cg2d: Sum(rhs),rhsMax =  -1.75234826649273E-13  5.20349513079536E-01
 cg2d: Sum(rhs),rhsMax =   1.01779695782511E-13  5.20276672617327E-01
 cg2d: Sum(rhs),rhsMax =   4.44963510481955E-13  5.20202903746729E-01
 cg2d: Sum(rhs),rhsMax =   2.15050199869893E-13  5.20128459453456E-01
 cg2d: Sum(rhs),rhsMax =   1.13409281965460E-13  5.20053561443317E-01
 cg2d: Sum(rhs),rhsMax =  -5.12714870559705E-13  5.19978591756531E-01
 cg2d: Sum(rhs),rhsMax =  -2.65260036158566E-13  5.19903954590518E-01
 cg2d: Sum(rhs),rhsMax =   3.71674913068887E-13  5.19830064140005E-01
 cg2d: Sum(rhs),rhsMax =   3.40463768289112E-13  5.19757332201801E-01
 cg2d: Sum(rhs),rhsMax =   6.72517597166689E-14  5.19686151078340E-01
 cg2d: Sum(rhs),rhsMax =   1.51892387556529E-13  5.19616896864152E-01
 cg2d: Sum(rhs),rhsMax =   1.15366050046362E-13  5.19549902850391E-01
 cg2d: Sum(rhs),rhsMax =  -2.62387334082348E-13  5.19485464205005E-01
 cg2d: Sum(rhs),rhsMax =   8.42381719934338E-15  5.19423811133845E-01
 cg2d: Sum(rhs),rhsMax =  -3.06962788521048E-13  5.19365137108381E-01
 cg2d: Sum(rhs),rhsMax =  -1.34656175099224E-13  5.19309550536405E-01
 cg2d: Sum(rhs),rhsMax =   8.21287482466460E-14  5.19257096361241E-01
 cg2d: Sum(rhs),rhsMax =   2.88130630465844E-13  5.19207762575941E-01
 cg2d: Sum(rhs),rhsMax =  -1.67060809630470E-13  5.19161450749879E-01
 cg2d: Sum(rhs),rhsMax =   2.36102803974347E-13  5.19118005954779E-01
 cg2d: Sum(rhs),rhsMax =  -1.46660461552983E-13  5.19077229924835E-01
 cg2d: Sum(rhs),rhsMax =  -2.66869859544272E-13  5.19038703513348E-01
 cg2d: Sum(rhs),rhsMax =  -1.03805852802452E-14  5.19002100022463E-01
 cg2d: Sum(rhs),rhsMax =   8.48904280204010E-14  5.18967054232154E-01
 cg2d: Sum(rhs),rhsMax =   5.54972734434500E-14  5.18929296390437E-01
 cg2d: Sum(rhs),rhsMax =  -3.34635097409830E-13  5.18891288807686E-01
 cg2d: Sum(rhs),rhsMax =   5.52224932448553E-13  5.18852802813563E-01
 cg2d: Sum(rhs),rhsMax =   3.90770749092439E-13  5.18813569253906E-01
 cg2d: Sum(rhs),rhsMax =   1.07691633388640E-13  5.18773388897318E-01
 cg2d: Sum(rhs),rhsMax =   3.13873926849340E-13  5.18732083639527E-01
 cg2d: Sum(rhs),rhsMax =   1.21874732528227E-13  5.18689520145172E-01
 cg2d: Sum(rhs),rhsMax =   4.03010957938932E-14  5.18645598524597E-01
 cg2d: Sum(rhs),rhsMax =   1.55084278752327E-13  5.18600269796427E-01
 cg2d: Sum(rhs),rhsMax =   3.15858450505857E-14  5.18553533470184E-01
 cg2d: Sum(rhs),rhsMax =   2.38975506050565E-13  5.18513134194579E-01
 cg2d: Sum(rhs),rhsMax =   3.61322083364257E-13  5.18484190556736E-01
 cg2d: Sum(rhs),rhsMax =   3.44266282148453E-13  5.18453826943659E-01
 cg2d: Sum(rhs),rhsMax =   6.53505027869983E-14  5.18421261496877E-01
 cg2d: Sum(rhs),rhsMax =   2.81441536742477E-14  5.18385899279958E-01
 cg2d: Sum(rhs),rhsMax =   3.60253493703055E-13  5.18347783049649E-01
 cg2d: Sum(rhs),rhsMax =   1.68198788230711E-14  5.18307075331046E-01
 cg2d: Sum(rhs),rhsMax =   8.26422263955351E-14  5.18263997996151E-01
 cg2d: Sum(rhs),rhsMax =   4.68222682847852E-13  5.18218843660498E-01
 cg2d: Sum(rhs),rhsMax =  -4.74981165510258E-13  5.18171992220061E-01
 cg2d: Sum(rhs),rhsMax =   2.78638223605299E-13  5.18123131546524E-01
 cg2d: Sum(rhs),rhsMax =  -1.47062917399410E-13  5.18075431804442E-01
 cg2d: Sum(rhs),rhsMax =  -9.13158437754191E-15  5.18024980695144E-01
 cg2d: Sum(rhs),rhsMax =   1.91818783079611E-13  5.17977080344553E-01
 cg2d: Sum(rhs),rhsMax =   1.11730069640714E-13  5.17927357908768E-01
 cg2d: Sum(rhs),rhsMax =   1.10064735103776E-13  5.17881045032211E-01
 cg2d: Sum(rhs),rhsMax =   2.07639461180520E-13  5.17833843785477E-01
 cg2d: Sum(rhs),rhsMax =   2.10984008042203E-13  5.17790094340745E-01
 cg2d: Sum(rhs),rhsMax =  -5.09731146181025E-14  5.17748097766187E-01
 cg2d: Sum(rhs),rhsMax =   2.09138262263764E-14  5.17708608985363E-01
 cg2d: Sum(rhs),rhsMax =   2.21767049168875E-14  5.17671733376573E-01
 cg2d: Sum(rhs),rhsMax =   1.28438926161323E-13  5.17637663844862E-01
 cg2d: Sum(rhs),rhsMax =  -3.50414142147315E-14  5.17606431103267E-01
 cg2d: Sum(rhs),rhsMax =   1.17253429188224E-13  5.17578031307120E-01
 cg2d: Sum(rhs),rhsMax =   3.13596371093183E-13  5.17552366304304E-01
 cg2d: Sum(rhs),rhsMax =   2.12815876032835E-13  5.17529276360367E-01
 cg2d: Sum(rhs),rhsMax =  -1.06387121334706E-13  5.17508536424594E-01
 cg2d: Sum(rhs),rhsMax =   1.82229231704412E-13  5.17489862818612E-01
 cg2d: Sum(rhs),rhsMax =  -2.34298691559331E-13  5.17472922823575E-01
 cg2d: Sum(rhs),rhsMax =  -3.38895578266829E-14  5.17456904139230E-01
 cg2d: Sum(rhs),rhsMax =   4.46573333867661E-13  5.17440906588557E-01
 cg2d: Sum(rhs),rhsMax =   2.84772205816353E-14  5.17424690924148E-01
 cg2d: Sum(rhs),rhsMax =  -7.49955653134293E-14  5.17408021095266E-01
 cg2d: Sum(rhs),rhsMax =  -3.10002024050959E-13  5.17390668202966E-01
 cg2d: Sum(rhs),rhsMax =   5.75650638268144E-14  5.17372424391256E-01
 cg2d: Sum(rhs),rhsMax =   2.91502932903143E-13  5.17353124047007E-01
 cg2d: Sum(rhs),rhsMax =  -4.02455846426619E-15  5.17332627806340E-01
 cg2d: Sum(rhs),rhsMax =  -2.75349187894847E-13  5.17310845405330E-01
 cg2d: Sum(rhs),rhsMax =   1.65423230669148E-14  5.17287721406090E-01
 cg2d: Sum(rhs),rhsMax =  -1.45577994103974E-14  5.17263249889670E-01
 cg2d: Sum(rhs),rhsMax =  -1.03264619077947E-13  5.17237297015021E-01
 cg2d: Sum(rhs),rhsMax =   2.86701218321639E-13  5.17208966899410E-01
 cg2d: Sum(rhs),rhsMax =   5.31519273039294E-15  5.17178240814106E-01
 cg2d: Sum(rhs),rhsMax =  -3.27876614747424E-13  5.17145261074989E-01
 cg2d: Sum(rhs),rhsMax =   8.72080185843060E-14  5.17110109932270E-01
 cg2d: Sum(rhs),rhsMax =   1.74166236988071E-13  5.17073034853433E-01
 cg2d: Sum(rhs),rhsMax =   8.45851166886291E-14  5.17034291641278E-01
 cg2d: Sum(rhs),rhsMax =  -6.63358257213531E-15  5.16994194356603E-01
 cg2d: Sum(rhs),rhsMax =   5.46243605903385E-13  5.16953102209266E-01
 cg2d: Sum(rhs),rhsMax =   3.45612427565811E-13  5.16911382419913E-01
 cg2d: Sum(rhs),rhsMax =  -3.67816888058314E-13  5.16869480382172E-01
 cg2d: Sum(rhs),rhsMax =   1.88737914186277E-15  5.16827796801059E-01
 cg2d: Sum(rhs),rhsMax =   1.21083698623181E-13  5.16786749680734E-01
 cg2d: Sum(rhs),rhsMax =  -1.53405066427581E-13  5.16746718685625E-01
 cg2d: Sum(rhs),rhsMax =  -2.70339306496226E-14  5.16620704578637E-01
 cg2d: Sum(rhs),rhsMax =  -3.39048233932715E-13  5.16485756892718E-01
 cg2d: Sum(rhs),rhsMax =   2.19269047363468E-15  5.16352636155277E-01
 cg2d: Sum(rhs),rhsMax =   1.00489061516384E-13  5.16220964830295E-01
 cg2d: Sum(rhs),rhsMax =  -7.24698079324071E-14  5.16090893905155E-01
 cg2d: Sum(rhs),rhsMax =   3.87204157625831E-13  5.15962558164260E-01
 cg2d: Sum(rhs),rhsMax =  -3.19438919760273E-13  5.15836097952400E-01
 cg2d: Sum(rhs),rhsMax =   1.03153596775485E-13  5.15711539612335E-01
 cg2d: Sum(rhs),rhsMax =   2.20504170478364E-13  5.15588868462349E-01
 cg2d: Sum(rhs),rhsMax =   2.41306974402278E-13  5.15468023391277E-01
 cg2d: Sum(rhs),rhsMax =  -5.07732744736700E-13  5.15348917081240E-01
 cg2d: Sum(rhs),rhsMax =   1.74513181683267E-13  5.15231462937531E-01
 cg2d: Sum(rhs),rhsMax =   2.87256329833951E-13  5.15115356995287E-01
 cg2d: Sum(rhs),rhsMax =  -1.33087985076941E-14  5.15000446575701E-01
 cg2d: Sum(rhs),rhsMax =   1.32630018079283E-13  5.14886512850702E-01
 cg2d: Sum(rhs),rhsMax =  -7.36952165958371E-13  5.14773135528526E-01
 cg2d: Sum(rhs),rhsMax =   1.38708489139105E-13  5.14659558344668E-01
 cg2d: Sum(rhs),rhsMax =  -4.09852707328184E-13  5.14545699706170E-01
 cg2d: Sum(rhs),rhsMax =  -2.45164999412850E-13  5.14431288783489E-01
 cg2d: Sum(rhs),rhsMax =   5.96106497496862E-13  5.14316410577767E-01
 cg2d: Sum(rhs),rhsMax =  -2.07070471880400E-13  5.14201202946235E-01
 cg2d: Sum(rhs),rhsMax =   1.82048820462910E-13  5.14085832655845E-01
 cg2d: Sum(rhs),rhsMax =  -1.23248633521200E-13  5.13970201491631E-01
 cg2d: Sum(rhs),rhsMax =   3.80945275324507E-13  5.13853877696471E-01
 cg2d: Sum(rhs),rhsMax =   1.67990621413594E-13  5.13736336593630E-01
 cg2d: Sum(rhs),rhsMax =  -7.22200077518664E-14  5.13617526184224E-01
 cg2d: Sum(rhs),rhsMax =   2.41029418646121E-13  5.13497433114852E-01
 cg2d: Sum(rhs),rhsMax =  -8.50292058984792E-14  5.13376086355028E-01
 cg2d: Sum(rhs),rhsMax =   2.60153010245290E-13  5.13253557605537E-01
 cg2d: Sum(rhs),rhsMax =   3.15872328293665E-13  5.13129928879344E-01
 cg2d: Sum(rhs),rhsMax =  -2.09235406778419E-13  5.13005304673452E-01
 cg2d: Sum(rhs),rhsMax =  -1.40193412434542E-13  5.12879851586764E-01
 cg2d: Sum(rhs),rhsMax =   2.08971728810070E-13  5.12753740041377E-01
 cg2d: Sum(rhs),rhsMax =  -6.43929354282591E-14  5.12627136985764E-01
 cg2d: Sum(rhs),rhsMax =   8.70137295549966E-15  5.12500293945828E-01
 cg2d: Sum(rhs),rhsMax =   3.07115444186934E-14  5.12373437558518E-01
 cg2d: Sum(rhs),rhsMax =   1.30007116183606E-13  5.12246752007374E-01
 cg2d: Sum(rhs),rhsMax =  -9.33420007953600E-14  5.12120488720362E-01
 cg2d: Sum(rhs),rhsMax =   4.28171387234499E-13  5.11994792441663E-01
 cg2d: Sum(rhs),rhsMax =   2.55517829117480E-13  5.11870116431036E-01
 cg2d: Sum(rhs),rhsMax =   1.11341491582095E-13  5.11746466507061E-01
 cg2d: Sum(rhs),rhsMax =  -8.63059623767981E-14  5.11624155159736E-01
 cg2d: Sum(rhs),rhsMax =  -3.89105414555502E-13  5.11503181206523E-01
 cg2d: Sum(rhs),rhsMax =   1.45453094013703E-13  5.11383740588479E-01
 cg2d: Sum(rhs),rhsMax =   1.88737914186277E-15  5.11265679459335E-01
 cg2d: Sum(rhs),rhsMax =  -8.52096171399808E-15  5.11149578911651E-01
 cg2d: Sum(rhs),rhsMax =   4.26617075000024E-13  5.11033284771655E-01
 cg2d: Sum(rhs),rhsMax =  -9.04554209313346E-14  5.10919635438118E-01
 cg2d: Sum(rhs),rhsMax =  -4.05647737622417E-13  5.10807070405148E-01
 cg2d: Sum(rhs),rhsMax =  -3.21187521024058E-13  5.10693926217668E-01
 cg2d: Sum(rhs),rhsMax =   1.97480920505200E-14  5.10583444979672E-01
 cg2d: Sum(rhs),rhsMax =  -1.08191233749722E-13  5.10472026247277E-01
 cg2d: Sum(rhs),rhsMax =   6.09443051580172E-13  5.10361103273594E-01
 cg2d: Sum(rhs),rhsMax =   2.25555685240408E-13  5.10249750553833E-01
 cg2d: Sum(rhs),rhsMax =  -2.08180694905025E-13  5.10137500549212E-01
 cg2d: Sum(rhs),rhsMax =  -2.31009655848879E-13  5.10024247680628E-01
 cg2d: Sum(rhs),rhsMax =   1.48270284938690E-13  5.09909869631868E-01
 cg2d: Sum(rhs),rhsMax =   5.87627169146288E-13  5.09793918807436E-01
 cg2d: Sum(rhs),rhsMax =   3.07906478091979E-13  5.09676689180374E-01
 cg2d: Sum(rhs),rhsMax =   4.73912575849056E-13  5.09558288983250E-01
 cg2d: Sum(rhs),rhsMax =  -2.49258946816155E-13  5.09438562159256E-01
 cg2d: Sum(rhs),rhsMax =   3.54938300972663E-13  5.09317506368587E-01
 cg2d: Sum(rhs),rhsMax =   4.53317938742259E-13  5.09195050129490E-01
 cg2d: Sum(rhs),rhsMax =   6.99301727635770E-14  5.09069742289770E-01
 cg2d: Sum(rhs),rhsMax =   1.49158463358390E-13  5.08942568320953E-01
 cg2d: Sum(rhs),rhsMax =  -1.31422650540003E-14  5.08813512345912E-01
 cg2d: Sum(rhs),rhsMax =   4.14945855453652E-15  5.08682776952845E-01
 cg2d: Sum(rhs),rhsMax =  -2.72976086179710E-13  5.08550461727642E-01
 cg2d: Sum(rhs),rhsMax =   8.58896287425637E-14  5.08416768606055E-01
 cg2d: Sum(rhs),rhsMax =  -7.38298311375729E-14  5.08281893513466E-01
 cg2d: Sum(rhs),rhsMax =  -2.22183382803109E-13  5.08146082766255E-01
 cg2d: Sum(rhs),rhsMax =   5.03624919545587E-14  5.08009406802864E-01
 cg2d: Sum(rhs),rhsMax =   1.92096338835768E-13  5.07872046340151E-01
 cg2d: Sum(rhs),rhsMax =   3.87190279838023E-15  5.07734298144858E-01
 cg2d: Sum(rhs),rhsMax =   1.36946010087513E-13  5.07596467072829E-01
 cg2d: Sum(rhs),rhsMax =   1.15893405983059E-13  5.07458860604928E-01
 cg2d: Sum(rhs),rhsMax =   1.02085007114283E-13  5.07321771632570E-01
 cg2d: Sum(rhs),rhsMax =   2.01241801001117E-13  5.07185476294448E-01
 cg2d: Sum(rhs),rhsMax =   5.82978110230670E-13  5.07050218946255E-01
 cg2d: Sum(rhs),rhsMax =  -4.06563671617732E-13  5.06916260082630E-01
 cg2d: Sum(rhs),rhsMax =   4.70457006684910E-14  5.06783708751506E-01
 cg2d: Sum(rhs),rhsMax =  -2.55143128846669E-13  5.06652767517577E-01
 cg2d: Sum(rhs),rhsMax =   3.00703906219724E-13  5.06523520422515E-01
 cg2d: Sum(rhs),rhsMax =   1.75359726739543E-13  5.06396000724789E-01
 cg2d: Sum(rhs),rhsMax =  -4.66848781854878E-13  5.06270332645777E-01
 cg2d: Sum(rhs),rhsMax =  -6.14411299615369E-13  5.06146548147112E-01
 cg2d: Sum(rhs),rhsMax =   4.30766533554561E-14  5.06024368283430E-01
 cg2d: Sum(rhs),rhsMax =   2.19255169575661E-13  5.05902865315674E-01
 cg2d: Sum(rhs),rhsMax =   3.63806207381856E-13  5.05783801937260E-01
 cg2d: Sum(rhs),rhsMax =   7.87286902337314E-13  5.05665254258208E-01
 cg2d: Sum(rhs),rhsMax =  -2.26721419416265E-13  5.05546579769213E-01
 cg2d: Sum(rhs),rhsMax =  -2.10248485288389E-14  5.05427473022243E-01
 cg2d: Sum(rhs),rhsMax =  -1.93803306736129E-13  5.05307865726284E-01
 cg2d: Sum(rhs),rhsMax =   3.72341046883662E-13  5.05187557701138E-01
 cg2d: Sum(rhs),rhsMax =   5.18196596743792E-14  5.05066409418207E-01
 cg2d: Sum(rhs),rhsMax =   2.46788700586364E-13  5.04944333065216E-01
 cg2d: Sum(rhs),rhsMax =   6.19226891984681E-14  5.04821186208995E-01
 cg2d: Sum(rhs),rhsMax =  -5.18307619046254E-13  5.04696880293154E-01
 cg2d: Sum(rhs),rhsMax =   1.55805923718333E-13  5.04571318856112E-01
 cg2d: Sum(rhs),rhsMax =   4.13405421006985E-13  5.04444475591776E-01
 cg2d: Sum(rhs),rhsMax =  -1.28008714739281E-13  5.04316306836810E-01
 cg2d: Sum(rhs),rhsMax =  -2.44401721083420E-13  5.04186843027809E-01
 cg2d: Sum(rhs),rhsMax =   2.15577555806590E-13  5.04056087739187E-01
 cg2d: Sum(rhs),rhsMax =  -7.51482209793153E-14  5.03923693837874E-01
 cg2d: Sum(rhs),rhsMax =  -1.20500831535253E-13  5.03789269090363E-01
 cg2d: Sum(rhs),rhsMax =   2.32050489934466E-13  5.03652625433016E-01
 cg2d: Sum(rhs),rhsMax =  -4.27741175812457E-13  5.03513843055635E-01
 cg2d: Sum(rhs),rhsMax =   1.46480050311482E-13  5.03373059548599E-01
 cg2d: Sum(rhs),rhsMax =   2.61374255572377E-13  5.03230435375233E-01
 cg2d: Sum(rhs),rhsMax =   4.27269331026991E-13  5.03086190673780E-01
 cg2d: Sum(rhs),rhsMax =  -2.78638223605299E-13  5.02940547318718E-01
 cg2d: Sum(rhs),rhsMax =  -2.37462827179513E-13  5.02793772288945E-01
 cg2d: Sum(rhs),rhsMax =   2.48592813001380E-13  5.02646142063370E-01
 cg2d: Sum(rhs),rhsMax =   3.88342136226072E-13  5.02497942633066E-01
 cg2d: Sum(rhs),rhsMax =  -2.20656826144250E-15  5.02349442495120E-01
 cg2d: Sum(rhs),rhsMax =  -1.43163259025414E-13  5.02200959214199E-01
 cg2d: Sum(rhs),rhsMax =  -9.98645610650328E-14  5.02052743754272E-01
 cg2d: Sum(rhs),rhsMax =   4.58660887048268E-14  5.01905059278639E-01
 cg2d: Sum(rhs),rhsMax =  -2.89476775883202E-13  5.01758142877106E-01
 cg2d: Sum(rhs),rhsMax =  -2.12108108854636E-13  5.01612203075743E-01
 cg2d: Sum(rhs),rhsMax =  -7.86037901434611E-14  5.01467408530179E-01
 cg2d: Sum(rhs),rhsMax =   3.84192677671535E-13  5.01323893560541E-01
 cg2d: Sum(rhs),rhsMax =   1.01751940206896E-13  5.01181760532877E-01
 cg2d: Sum(rhs),rhsMax =   1.31769595235198E-13  5.01041066931215E-01
 cg2d: Sum(rhs),rhsMax =   1.28341781646668E-13  5.00901823653507E-01
 cg2d: Sum(rhs),rhsMax =   1.11424758308942E-13  5.00747666748041E-01
 cg2d: Sum(rhs),rhsMax =  -5.63299407119189E-14  5.00594124044916E-01
 cg2d: Sum(rhs),rhsMax =   2.79568035388422E-13  5.00440734015260E-01
 cg2d: Sum(rhs),rhsMax =   1.07108766300712E-13  5.00287942769500E-01
 cg2d: Sum(rhs),rhsMax =   5.81895642781660E-14  5.00135811744574E-01
 cg2d: Sum(rhs),rhsMax =   2.08208450480640E-13  4.99984262198492E-01
 cg2d: Sum(rhs),rhsMax =  -6.72101263532454E-14  4.99833277654998E-01
 cg2d: Sum(rhs),rhsMax =  -1.13964393477772E-13  4.99682745100483E-01
 cg2d: Sum(rhs),rhsMax =  -3.03229663600746E-14  4.99532595370795E-01
 cg2d: Sum(rhs),rhsMax =   1.64382396583562E-13  4.99382734998809E-01
 cg2d: Sum(rhs),rhsMax =   8.40119640521664E-13  4.99233077757207E-01
 cg2d: Sum(rhs),rhsMax =   1.58109636494430E-13  4.99083520168560E-01
 cg2d: Sum(rhs),rhsMax =  -2.67050270785774E-13  4.98933950975416E-01
 cg2d: Sum(rhs),rhsMax =   6.87921941633363E-14  4.98784287424818E-01
 cg2d: Sum(rhs),rhsMax =   3.86538023811056E-13  4.98634425503185E-01
 cg2d: Sum(rhs),rhsMax =   3.56173424087558E-13  4.98485518331619E-01
 cg2d: Sum(rhs),rhsMax =   9.48963130298353E-14  4.98336252957858E-01
 cg2d: Sum(rhs),rhsMax =  -1.27134414107388E-13  4.98186538840681E-01
 cg2d: Sum(rhs),rhsMax =  -6.34353680695199E-14  4.98035987901054E-01
 cg2d: Sum(rhs),rhsMax =   1.48811518663194E-13  4.97884033780741E-01
 cg2d: Sum(rhs),rhsMax =   8.17262924002193E-14  4.97730623942933E-01
 cg2d: Sum(rhs),rhsMax =  -8.32528490590789E-14  4.97575794102705E-01
 cg2d: Sum(rhs),rhsMax =   1.63216662407706E-13  4.97419598971005E-01
 cg2d: Sum(rhs),rhsMax =  -1.76261782947051E-13  4.97262111302330E-01
 cg2d: Sum(rhs),rhsMax =   3.88578058618805E-16  4.97103450440098E-01
 cg2d: Sum(rhs),rhsMax =   1.77538539425370E-13  4.96943748398536E-01
 cg2d: Sum(rhs),rhsMax =   4.57550664023643E-14  4.96783158801910E-01
 cg2d: Sum(rhs),rhsMax =   4.84279283341493E-13  4.96621865045242E-01
 cg2d: Sum(rhs),rhsMax =  -4.40605885110301E-13  4.96460023296085E-01
 cg2d: Sum(rhs),rhsMax =  -7.01105840050786E-14  4.96297830031833E-01
 cg2d: Sum(rhs),rhsMax =   3.71980224400659E-13  4.96135449667413E-01
 cg2d: Sum(rhs),rhsMax =   4.96991336973451E-13  4.95973069962434E-01
 cg2d: Sum(rhs),rhsMax =  -4.52554660412829E-13  4.95810814949539E-01
 cg2d: Sum(rhs),rhsMax =   2.57238674805649E-13  4.95648829565123E-01
 cg2d: Sum(rhs),rhsMax =   1.45577994103974E-14  4.95487215117608E-01
 cg2d: Sum(rhs),rhsMax =   5.55722134976122E-13  4.95326097614634E-01
 cg2d: Sum(rhs),rhsMax =  -1.08746345262034E-13  4.95165501850926E-01
 cg2d: Sum(rhs),rhsMax =  -3.16136006262013E-13  4.95005482427944E-01
 cg2d: Sum(rhs),rhsMax =   1.23900889548167E-13  4.94845220819216E-01
 cg2d: Sum(rhs),rhsMax =  -6.05474004267137E-13  4.94684889025019E-01
 cg2d: Sum(rhs),rhsMax =  -1.73625003263567E-13  4.94523645510324E-01
 cg2d: Sum(rhs),rhsMax =   9.06344443940554E-13  4.94362226632002E-01
 cg2d: Sum(rhs),rhsMax =   1.91041626962374E-13  4.94200351278356E-01
 cg2d: Sum(rhs),rhsMax =   1.24872334694714E-13  4.94037944202998E-01
 cg2d: Sum(rhs),rhsMax =  -1.13242748511766E-14  4.93874954716490E-01
 cg2d: Sum(rhs),rhsMax =  -1.37265199207093E-13  4.93711329726077E-01
 cg2d: Sum(rhs),rhsMax =   2.90212298637016E-13  4.93547034146016E-01
 cg2d: Sum(rhs),rhsMax =  -8.48210390813620E-14  4.93382017919598E-01
 cg2d: Sum(rhs),rhsMax =  -2.53755350065887E-13  4.93216240077456E-01
 cg2d: Sum(rhs),rhsMax =  -4.05370181866260E-14  4.93049659308208E-01
 cg2d: Sum(rhs),rhsMax =   3.43350348153137E-13  4.92882251605494E-01
 cg2d: Sum(rhs),rhsMax =  -5.11021780447152E-13  4.92713963457261E-01
 cg2d: Sum(rhs),rhsMax =   3.95655730400790E-14  4.92544847786014E-01
 cg2d: Sum(rhs),rhsMax =  -1.19154686117895E-13  4.92374903489660E-01
 cg2d: Sum(rhs),rhsMax =   5.18640685953642E-13  4.92203988889643E-01
 cg2d: Sum(rhs),rhsMax =   3.34732241924485E-13  4.92032156569033E-01
 cg2d: Sum(rhs),rhsMax =  -3.52620710408758E-13  4.91859394768172E-01
 cg2d: Sum(rhs),rhsMax =   1.93317584162855E-14  4.91685759781517E-01
 cg2d: Sum(rhs),rhsMax =  -1.64313007644523E-14  4.91510758914641E-01
 cg2d: Sum(rhs),rhsMax =   5.57484614027715E-13  4.91334138977931E-01
 cg2d: Sum(rhs),rhsMax =   3.94129173741931E-14  4.91155974527685E-01
 cg2d: Sum(rhs),rhsMax =   1.57818202950466E-13  4.90976411244882E-01
 cg2d: Sum(rhs),rhsMax =   2.28622676345935E-13  4.90795409464135E-01
 cg2d: Sum(rhs),rhsMax =   5.92526028242446E-13  4.90613110916261E-01
 cg2d: Sum(rhs),rhsMax =  -4.69624339416441E-14  4.90429714833581E-01
 cg2d: Sum(rhs),rhsMax =   6.56849574731666E-13  4.90234066821196E-01
 cg2d: Sum(rhs),rhsMax =  -8.09213807073661E-14  4.90021597797905E-01
 cg2d: Sum(rhs),rhsMax =   4.54677961947425E-13  4.89808759881208E-01
 cg2d: Sum(rhs),rhsMax =   4.93716179050807E-13  4.89596061577241E-01
 cg2d: Sum(rhs),rhsMax =  -6.16312556545040E-14  4.89383561775105E-01
 cg2d: Sum(rhs),rhsMax =   5.90222315466349E-14  4.89171493500548E-01
 cg2d: Sum(rhs),rhsMax =   3.89549503765352E-13  4.88960019467354E-01
 cg2d: Sum(rhs),rhsMax =  -2.75696132590042E-13  4.88749270368757E-01
 cg2d: Sum(rhs),rhsMax =   7.16093850883226E-14  4.88539328029091E-01
 cg2d: Sum(rhs),rhsMax =  -1.97328264839314E-13  4.88330245835419E-01
 cg2d: Sum(rhs),rhsMax =   5.06955588619462E-14  4.88121040796169E-01
 cg2d: Sum(rhs),rhsMax =  -1.89570581454745E-14  4.87911573191221E-01
 cg2d: Sum(rhs),rhsMax =   6.00491878444132E-14  4.87699122430223E-01
 cg2d: Sum(rhs),rhsMax =   1.61357038841459E-13  4.87486176768890E-01
 cg2d: Sum(rhs),rhsMax =   1.42191813878867E-13  4.87272655234441E-01
 cg2d: Sum(rhs),rhsMax =   3.70758979073571E-13  4.87058425708804E-01
 cg2d: Sum(rhs),rhsMax =  -1.77025061276481E-13  4.86843374901785E-01
 cg2d: Sum(rhs),rhsMax =  -3.24643090188204E-13  4.86627380541132E-01
 cg2d: Sum(rhs),rhsMax =   5.54639667527113E-13  4.86410292432357E-01
 cg2d: Sum(rhs),rhsMax =  -9.56734691470729E-14  4.86192032567602E-01
 cg2d: Sum(rhs),rhsMax =  -6.76680933509033E-14  4.85972506950771E-01
 cg2d: Sum(rhs),rhsMax =  -1.70488623219001E-13  4.85751675512533E-01
 cg2d: Sum(rhs),rhsMax =   1.14352971536391E-13  4.85529347580901E-01
 cg2d: Sum(rhs),rhsMax =   2.34118280317830E-14  4.85305445215645E-01
 cg2d: Sum(rhs),rhsMax =   1.26162968960841E-13  4.85079900633769E-01
 cg2d: Sum(rhs),rhsMax =  -1.89251392335166E-13  4.84852691148477E-01
 cg2d: Sum(rhs),rhsMax =  -6.80538958519605E-13  4.84623719430956E-01
 cg2d: Sum(rhs),rhsMax =   9.77967706816685E-14  4.84392929681470E-01
 cg2d: Sum(rhs),rhsMax =   5.03000419094235E-13  4.84160282386075E-01
 cg2d: Sum(rhs),rhsMax =   1.65770175364344E-13  4.83925728924644E-01
 cg2d: Sum(rhs),rhsMax =   4.14446255092571E-13  4.83689367150352E-01
 cg2d: Sum(rhs),rhsMax =   4.09408618118334E-13  4.83451178157248E-01
 cg2d: Sum(rhs),rhsMax =   1.56111235050105E-13  4.83211220196365E-01
 cg2d: Sum(rhs),rhsMax =  -9.84767822842514E-14  4.82969012178250E-01
 cg2d: Sum(rhs),rhsMax =  -1.16434639707563E-13  4.82724482324465E-01
 cg2d: Sum(rhs),rhsMax =  -1.96148652875650E-13  4.82477674478864E-01
 cg2d: Sum(rhs),rhsMax =   1.18433041151889E-13  4.82228809662397E-01
 cg2d: Sum(rhs),rhsMax =   4.32334723576844E-13  4.81978143122544E-01
 cg2d: Sum(rhs),rhsMax =   6.67799149312032E-14  4.81725804823098E-01
 cg2d: Sum(rhs),rhsMax =   2.28858598738668E-13  4.81472210407730E-01
 cg2d: Sum(rhs),rhsMax =   6.10622663543836E-16  4.81222054754569E-01
 cg2d: Sum(rhs),rhsMax =  -6.95554724927661E-14  4.80971194611057E-01
 cg2d: Sum(rhs),rhsMax =  -2.35922392732846E-15  4.80719884455925E-01
 cg2d: Sum(rhs),rhsMax =   6.03864180881430E-13  4.80468384989998E-01
 cg2d: Sum(rhs),rhsMax =   1.65853442091191E-13  4.80216917771363E-01
 cg2d: Sum(rhs),rhsMax =   6.77097267143267E-14  4.79965713191991E-01
 cg2d: Sum(rhs),rhsMax =  -1.22860055462581E-13  4.79714559501704E-01
 cg2d: Sum(rhs),rhsMax =   3.17607051769642E-13  4.79463066794503E-01
 cg2d: Sum(rhs),rhsMax =   1.34919853067572E-13  4.79211290028716E-01
 cg2d: Sum(rhs),rhsMax =  -3.55784846028939E-13  4.78959231759982E-01
 cg2d: Sum(rhs),rhsMax =   4.41813252649581E-13  4.78706923453509E-01
 cg2d: Sum(rhs),rhsMax =   9.85739267989061E-14  4.78454350812237E-01
 cg2d: Sum(rhs),rhsMax =   2.20712337295481E-13  4.78201504825696E-01
 cg2d: Sum(rhs),rhsMax =  -6.40321129452559E-14  4.78264701282412E-01
 cg2d: Sum(rhs),rhsMax =  -8.05466804365551E-14  4.78762861257242E-01
 cg2d: Sum(rhs),rhsMax =   2.20851115173559E-13  4.79260840952644E-01
 cg2d: Sum(rhs),rhsMax =  -2.67813549115203E-13  4.79757754505330E-01
 cg2d: Sum(rhs),rhsMax =   1.05984665488279E-13  4.80253234627608E-01
 cg2d: Sum(rhs),rhsMax =   2.50202636387087E-13  4.80747109114226E-01
 cg2d: Sum(rhs),rhsMax =   2.39280817382337E-13  4.81239240790522E-01
 cg2d: Sum(rhs),rhsMax =   5.83061376957517E-13  4.81729655027330E-01
 cg2d: Sum(rhs),rhsMax =   1.77885484120566E-13  4.82218164778475E-01
 cg2d: Sum(rhs),rhsMax =   1.72584169177981E-13  4.82704763310474E-01
 cg2d: Sum(rhs),rhsMax =   1.01293973209238E-13  4.83188725649138E-01
 cg2d: Sum(rhs),rhsMax =  -4.66710003976800E-14  4.83669992133440E-01
 cg2d: Sum(rhs),rhsMax =   2.54837817514897E-13  4.84148588039533E-01
 cg2d: Sum(rhs),rhsMax =   1.99826266644720E-13  4.84624636338845E-01
 cg2d: Sum(rhs),rhsMax =   3.87467835594180E-14  4.85098327519804E-01
 cg2d: Sum(rhs),rhsMax =  -2.37407316028282E-13  4.85569913333829E-01
 cg2d: Sum(rhs),rhsMax =  -1.12423959031105E-13  4.86039665857862E-01
 cg2d: Sum(rhs),rhsMax =   3.17468273891564E-13  4.86507868535929E-01
 cg2d: Sum(rhs),rhsMax =   3.10584891138888E-13  4.86974796595550E-01
 cg2d: Sum(rhs),rhsMax =  -3.42781358853017E-14  4.87440669433931E-01
 cg2d: Sum(rhs),rhsMax =  -3.02272096242007E-13  4.87905554824901E-01
 cg2d: Sum(rhs),rhsMax =   4.27199942087952E-13  4.88369529514894E-01
 cg2d: Sum(rhs),rhsMax =   2.64926969251178E-14  4.88833724608236E-01
 cg2d: Sum(rhs),rhsMax =  -1.22055143769728E-13  4.89298411497930E-01
 cg2d: Sum(rhs),rhsMax =  -1.51045842500253E-13  4.89764755546482E-01
 cg2d: Sum(rhs),rhsMax =   9.19542220145786E-14  4.90233125151916E-01
 cg2d: Sum(rhs),rhsMax =  -1.07802655691103E-13  4.90703836197019E-01
 cg2d: Sum(rhs),rhsMax =  -1.29063426612674E-14  4.91177156191195E-01
 cg2d: Sum(rhs),rhsMax =   3.72257780156815E-13  4.91653271429038E-01
 cg2d: Sum(rhs),rhsMax =  -3.85247389544929E-14  4.92132302195597E-01
 cg2d: Sum(rhs),rhsMax =  -5.24025267623074E-14  4.92614282870016E-01
 cg2d: Sum(rhs),rhsMax =  -9.68253255351215E-14  4.93099193997482E-01
 cg2d: Sum(rhs),rhsMax =   3.48027162644371E-13  4.93586906341888E-01
 cg2d: Sum(rhs),rhsMax =  -2.28983498828939E-13  4.94077135283318E-01
 cg2d: Sum(rhs),rhsMax =   5.45591349876418E-13  4.94569631324338E-01
 cg2d: Sum(rhs),rhsMax =  -3.90215637580127E-13  4.95064196161414E-01
 cg2d: Sum(rhs),rhsMax =   1.20167764627865E-13  4.95560689059754E-01
 cg2d: Sum(rhs),rhsMax =  -9.40914013369820E-14  4.96058528654148E-01
 cg2d: Sum(rhs),rhsMax =   6.61540267010707E-13  4.96557284619916E-01
 cg2d: Sum(rhs),rhsMax =   3.99791311167519E-13  4.97056519790568E-01
 cg2d: Sum(rhs),rhsMax =  -3.47777362463830E-14  4.97555792592738E-01
 cg2d: Sum(rhs),rhsMax =   1.91416327233185E-13  4.98054674597572E-01
 cg2d: Sum(rhs),rhsMax =   3.93338139836885E-13  4.98552911200982E-01
 cg2d: Sum(rhs),rhsMax =   3.48193696098065E-13  4.99050004961280E-01
 cg2d: Sum(rhs),rhsMax =   1.84713355722010E-14  4.99545638613589E-01
 cg2d: Sum(rhs),rhsMax =   4.57273108267486E-13  5.00039549366338E-01
 cg2d: Sum(rhs),rhsMax =  -8.97198981775205E-14  5.00531494669428E-01
 cg2d: Sum(rhs),rhsMax =   7.39686090156511E-15  5.01021231130398E-01
 cg2d: Sum(rhs),rhsMax =   3.54091755916386E-13  5.01508515440927E-01
 cg2d: Sum(rhs),rhsMax =   1.00128239033381E-13  5.01993141057057E-01
 cg2d: Sum(rhs),rhsMax =   3.99985600196828E-13  5.02474896563232E-01
 cg2d: Sum(rhs),rhsMax =  -3.65124597223598E-14  5.02955452662294E-01
 cg2d: Sum(rhs),rhsMax =  -4.01886857126499E-13  5.03435575525737E-01
 cg2d: Sum(rhs),rhsMax =   1.68545732925907E-13  5.03912441899406E-01
 cg2d: Sum(rhs),rhsMax =  -7.76601005725297E-14  5.04373850538524E-01
 cg2d: Sum(rhs),rhsMax =   5.18182718955984E-13  5.04830940561174E-01
 cg2d: Sum(rhs),rhsMax =   1.12548859121375E-14  5.05285799628733E-01
 cg2d: Sum(rhs),rhsMax =   2.84633427938275E-13  5.05738779114548E-01
 cg2d: Sum(rhs),rhsMax =  -4.18637347010531E-13  5.06190311506607E-01
 cg2d: Sum(rhs),rhsMax =  -6.70574706873595E-14  5.06640848356566E-01
 cg2d: Sum(rhs),rhsMax =   9.98923166406485E-14  5.07090850133349E-01
 cg2d: Sum(rhs),rhsMax =  -2.28428387316626E-13  5.07540776005740E-01
 cg2d: Sum(rhs),rhsMax =   6.27969898303604E-13  5.07991064144099E-01
 cg2d: Sum(rhs),rhsMax =   1.01238462058006E-13  5.08442127005997E-01
 cg2d: Sum(rhs),rhsMax =   2.93515212135276E-13  5.08894331831587E-01
 cg2d: Sum(rhs),rhsMax =  -3.64680508013748E-13  5.09347977200628E-01
 cg2d: Sum(rhs),rhsMax =   2.72781797150401E-13  5.09803353542477E-01
 cg2d: Sum(rhs),rhsMax =   2.53352894219461E-13  5.10260612271588E-01
 cg2d: Sum(rhs),rhsMax =  -1.05179753795426E-13  5.10719877718885E-01
 cg2d: Sum(rhs),rhsMax =   2.36574648759813E-13  5.11181193981467E-01
 cg2d: Sum(rhs),rhsMax =  -3.27723959081538E-13  5.11644508787076E-01
 cg2d: Sum(rhs),rhsMax =   1.70780056762965E-13  5.12109732107317E-01
 cg2d: Sum(rhs),rhsMax =   6.44762021551060E-14  5.12576979833076E-01
 cg2d: Sum(rhs),rhsMax =  -2.90198420849208E-13  5.13045673601337E-01
 cg2d: Sum(rhs),rhsMax =  -3.29333782467245E-13  5.13515495138049E-01
 cg2d: Sum(rhs),rhsMax =   6.08860184492244E-13  5.13986036146968E-01
 cg2d: Sum(rhs),rhsMax =   3.64042129774589E-13  5.14456855914404E-01
 cg2d: Sum(rhs),rhsMax =   2.51673681894715E-13  5.14927118389705E-01
 cg2d: Sum(rhs),rhsMax =   3.02535774210355E-15  5.15396322673528E-01
 cg2d: Sum(rhs),rhsMax =   6.05168692935365E-13  5.15837085095364E-01
 cg2d: Sum(rhs),rhsMax =   2.47482589976755E-13  5.16275579178261E-01
 cg2d: Sum(rhs),rhsMax =   3.43280959214098E-13  5.16712308587754E-01
 cg2d: Sum(rhs),rhsMax =   2.97165070328731E-13  5.17147024937935E-01
 cg2d: Sum(rhs),rhsMax =   7.25808302348696E-14  5.17579222790031E-01
 cg2d: Sum(rhs),rhsMax =   4.95492535890207E-13  5.18009006076125E-01
 cg2d: Sum(rhs),rhsMax =   1.20042864537595E-13  5.18436219919461E-01
 cg2d: Sum(rhs),rhsMax =   2.06779038336435E-13  5.18860859158828E-01
 cg2d: Sum(rhs),rhsMax =   2.35922392732846E-16  5.19282954449861E-01
 cg2d: Sum(rhs),rhsMax =  -2.85341195116473E-13  5.19702619952043E-01
 cg2d: Sum(rhs),rhsMax =   2.41834330338975E-13  5.20120058843716E-01
 cg2d: Sum(rhs),rhsMax =   2.07611705604904E-13  5.20535437799708E-01
 cg2d: Sum(rhs),rhsMax =  -1.74332770441765E-13  5.20951047077075E-01
 cg2d: Sum(rhs),rhsMax =  -8.80545636405827E-14  5.21366993832077E-01
 cg2d: Sum(rhs),rhsMax =   1.24261712031171E-13  5.21781893947500E-01
 cg2d: Sum(rhs),rhsMax =  -3.76226827469850E-14  5.22196148954203E-01
 cg2d: Sum(rhs),rhsMax =   1.26801347200001E-13  5.22610370425727E-01
 cg2d: Sum(rhs),rhsMax =  -1.02293173931400E-13  5.23025022214517E-01
 cg2d: Sum(rhs),rhsMax =   4.25132151704588E-13  5.23439813152394E-01
 cg2d: Sum(rhs),rhsMax =   9.93233273405281E-14  5.23855460047559E-01
 cg2d: Sum(rhs),rhsMax =   2.22405427408034E-13  5.24272971623578E-01
 cg2d: Sum(rhs),rhsMax =  -7.48789918958437E-13  5.24692696801748E-01
 cg2d: Sum(rhs),rhsMax =  -6.22030205121860E-13  5.25115058009065E-01
 cg2d: Sum(rhs),rhsMax =  -3.21506710143638E-13  5.25539756042022E-01
 cg2d: Sum(rhs),rhsMax =  -1.27939325800241E-13  5.25967837768787E-01
 cg2d: Sum(rhs),rhsMax =   1.38195010990216E-13  5.26399515093016E-01
 cg2d: Sum(rhs),rhsMax =  -2.64566146768175E-13  5.26834971207020E-01
 cg2d: Sum(rhs),rhsMax =   5.38596944821279E-14  5.27274202411332E-01
 cg2d: Sum(rhs),rhsMax =  -3.41879302645509E-13  5.27717204400007E-01
 cg2d: Sum(rhs),rhsMax =   4.22994972382185E-13  5.28163789172028E-01
 cg2d: Sum(rhs),rhsMax =   5.36876099133110E-13  5.28613787948247E-01
 cg2d: Sum(rhs),rhsMax =   1.58997814914130E-13  5.29066865149161E-01
 cg2d: Sum(rhs),rhsMax =  -2.23418505918005E-13  5.29522665842463E-01
 cg2d: Sum(rhs),rhsMax =  -9.17321774096536E-15  5.29980708676423E-01
 cg2d: Sum(rhs),rhsMax =   4.90885110338013E-13  5.30440531684161E-01
 cg2d: Sum(rhs),rhsMax =   7.35522753814166E-16  5.30901567242782E-01
 cg2d: Sum(rhs),rhsMax =   4.22592516535758E-13  5.31363231897943E-01
 cg2d: Sum(rhs),rhsMax =  -3.72202269005584E-14  5.31824903758318E-01
 cg2d: Sum(rhs),rhsMax =   3.59295926344316E-14  5.32286075701673E-01
 cg2d: Sum(rhs),rhsMax =  -1.09315334562154E-13  5.32746147563524E-01
 cg2d: Sum(rhs),rhsMax =   1.48034362545957E-13  5.33204638282685E-01
 cg2d: Sum(rhs),rhsMax =   2.68923772139829E-13  5.33661053113060E-01
 cg2d: Sum(rhs),rhsMax =  -3.53883589099269E-15  5.34115378450047E-01
 cg2d: Sum(rhs),rhsMax =   8.93063401008476E-13  5.34567248877780E-01
 cg2d: Sum(rhs),rhsMax =   3.40769079620884E-13  5.35016336583939E-01
 cg2d: Sum(rhs),rhsMax =   1.90500393237869E-13  5.35462400652633E-01
 cg2d: Sum(rhs),rhsMax =  -1.31145094783847E-14  5.35905314527837E-01
 cg2d: Sum(rhs),rhsMax =  -1.08801856413265E-14  5.36344994234694E-01
 cg2d: Sum(rhs),rhsMax =  -3.25961480029946E-13  5.36781493498496E-01
 cg2d: Sum(rhs),rhsMax =  -1.21402887742761E-13  5.37214913369059E-01
 cg2d: Sum(rhs),rhsMax =   1.66838765025545E-13  5.37645577274119E-01
 cg2d: Sum(rhs),rhsMax =   3.46903061831938E-13  5.38073762982851E-01
 cg2d: Sum(rhs),rhsMax =   1.38819511441568E-13  5.38499869391330E-01
 cg2d: Sum(rhs),rhsMax =  -2.86881629563140E-13  5.38924192922978E-01
 cg2d: Sum(rhs),rhsMax =   5.52308199175400E-13  5.39347192386360E-01
 cg2d: Sum(rhs),rhsMax =  -1.44467771079348E-13  5.39678987726473E-01
 cg2d: Sum(rhs),rhsMax =   2.92793567169269E-13  5.40009093656041E-01
 cg2d: Sum(rhs),rhsMax =  -1.99951166734991E-13  5.40315235127353E-01
 cg2d: Sum(rhs),rhsMax =   4.68805549935780E-13  5.40621424510948E-01
 cg2d: Sum(rhs),rhsMax =   5.88626369868450E-13  5.40929386705462E-01
 cg2d: Sum(rhs),rhsMax =   1.73749903353837E-13  5.41239403451256E-01
 cg2d: Sum(rhs),rhsMax =  -9.54791801177635E-14  5.41552214998583E-01
 cg2d: Sum(rhs),rhsMax =   8.61671844987200E-14  5.41868320056627E-01
 cg2d: Sum(rhs),rhsMax =  -3.71438990676154E-13  5.42188091068560E-01
 cg2d: Sum(rhs),rhsMax =   2.48343012820840E-13  5.42511793685516E-01
 cg2d: Sum(rhs),rhsMax =  -1.47659662275146E-14  5.42839499655123E-01
 cg2d: Sum(rhs),rhsMax =  -2.16507367589713E-13  5.43171189725277E-01
 cg2d: Sum(rhs),rhsMax =  -1.98036032017512E-14  5.43506647319182E-01
 cg2d: Sum(rhs),rhsMax =  -3.17149084771984E-13  5.43845612487212E-01
 cg2d: Sum(rhs),rhsMax =   1.02598485263172E-13  5.44187610435467E-01
 cg2d: Sum(rhs),rhsMax =  -8.92758089676704E-14  5.44532152993678E-01
 cg2d: Sum(rhs),rhsMax =   6.55864251797311E-14  5.44878536853900E-01
 cg2d: Sum(rhs),rhsMax =   3.26724758359376E-13  5.45226068321751E-01
 cg2d: Sum(rhs),rhsMax =   2.03032035628326E-14  5.45573942367368E-01
 cg2d: Sum(rhs),rhsMax =   1.05623843005276E-13  5.45921466149548E-01
 cg2d: Sum(rhs),rhsMax =   7.08322289710850E-14  5.46267789021933E-01
 cg2d: Sum(rhs),rhsMax =  -2.60680366181987E-13  5.46612217341146E-01
 cg2d: Sum(rhs),rhsMax =  -1.11161080340594E-13  5.46953993735948E-01
 cg2d: Sum(rhs),rhsMax =   4.78783679369599E-13  5.47292525352409E-01
 cg2d: Sum(rhs),rhsMax =   9.21485110438880E-15  5.47627124502030E-01
 cg2d: Sum(rhs),rhsMax =  -8.80823192161984E-14  5.47957342360672E-01
 cg2d: Sum(rhs),rhsMax =   5.41233724504764E-15  5.48281999112587E-01
 cg2d: Sum(rhs),rhsMax =   3.75671715957537E-14  5.48601180300863E-01
 cg2d: Sum(rhs),rhsMax =  -1.95995997209764E-13  5.48914875328344E-01
 cg2d: Sum(rhs),rhsMax =  -5.41358624595034E-13  5.49223121004961E-01
 cg2d: Sum(rhs),rhsMax =   9.93510829161437E-14  5.49525914231007E-01
 cg2d: Sum(rhs),rhsMax =   2.71463407308659E-13  5.49823471753080E-01
 cg2d: Sum(rhs),rhsMax =  -2.01588745696313E-13  5.50116023374079E-01
 cg2d: Sum(rhs),rhsMax =  -1.23762111670089E-13  5.50403968070044E-01
 cg2d: Sum(rhs),rhsMax =   4.50972592602739E-13  5.50687827116675E-01
 cg2d: Sum(rhs),rhsMax =  -4.00929289767760E-14  5.50968209632055E-01
 cg2d: Sum(rhs),rhsMax =   5.14588371913760E-14  5.51245464023953E-01
 cg2d: Sum(rhs),rhsMax =  -4.34444147323632E-13  5.51520223532633E-01
 cg2d: Sum(rhs),rhsMax =   1.18738352483660E-13  5.51793051657340E-01
 cg2d: Sum(rhs),rhsMax =   5.64825963778048E-13  5.52064606451830E-01
 cg2d: Sum(rhs),rhsMax =  -3.98195365569620E-13  5.52335490232837E-01
 cg2d: Sum(rhs),rhsMax =   2.78055356517370E-13  5.52606291210221E-01
 cg2d: Sum(rhs),rhsMax =   3.66928709638614E-13  5.52877510905297E-01
 cg2d: Sum(rhs),rhsMax =  -3.25142690549285E-13  5.53149639592284E-01
 cg2d: Sum(rhs),rhsMax =  -6.55170362406921E-14  5.53423026320410E-01
 cg2d: Sum(rhs),rhsMax =  -7.09154956979319E-15  5.53698132997148E-01
 cg2d: Sum(rhs),rhsMax =   2.82551759767102E-14  5.53975035137419E-01
 cg2d: Sum(rhs),rhsMax =   1.92554305833426E-13  5.54254024543148E-01
 cg2d: Sum(rhs),rhsMax =   4.02358701911965E-13  5.54535050299686E-01
 cg2d: Sum(rhs),rhsMax =  -1.31561428418081E-13  5.54818111738175E-01
 cg2d: Sum(rhs),rhsMax =  -4.04259958841635E-13  5.55103068793519E-01
 cg2d: Sum(rhs),rhsMax =   3.91922605480488E-13  5.55389694500502E-01
 cg2d: Sum(rhs),rhsMax =   4.76563233320348E-14  5.55677593473621E-01
 cg2d: Sum(rhs),rhsMax =   1.97786231836972E-13  5.55966636905075E-01
 cg2d: Sum(rhs),rhsMax =   2.22363794044611E-13  5.56255996653859E-01
 cg2d: Sum(rhs),rhsMax =   3.08808534299487E-13  5.56545152917251E-01
 cg2d: Sum(rhs),rhsMax =   3.08530978543331E-13  5.56833457688772E-01
 cg2d: Sum(rhs),rhsMax =  -1.94746996307060E-13  5.57120319139115E-01
 cg2d: Sum(rhs),rhsMax =   1.69989022857919E-13  5.57405053563442E-01
 cg2d: Sum(rhs),rhsMax =   1.08857367564497E-13  5.57687152040342E-01
 cg2d: Sum(rhs),rhsMax =  -1.00822128423772E-13  5.57966095656690E-01
 cg2d: Sum(rhs),rhsMax =   1.03250741290140E-13  5.58241067880211E-01
 cg2d: Sum(rhs),rhsMax =   1.52503010220073E-13  5.58511657991417E-01
 cg2d: Sum(rhs),rhsMax =   1.78718151389035E-13  5.58775889619995E-01
 cg2d: Sum(rhs),rhsMax =  -3.24976157095591E-13  5.59035010632906E-01
 cg2d: Sum(rhs),rhsMax =  -4.45574133145499E-13  5.59288609235845E-01
 cg2d: Sum(rhs),rhsMax =  -2.06890060638898E-13  5.59536467517168E-01
 cg2d: Sum(rhs),rhsMax =   4.18526324708068E-13  5.59778574475386E-01
 cg2d: Sum(rhs),rhsMax =  -5.23067700264335E-13  5.60014895161693E-01
 cg2d: Sum(rhs),rhsMax =   1.27273191985466E-13  5.60245560515064E-01
 cg2d: Sum(rhs),rhsMax =  -3.88855614374961E-14  5.60470732992333E-01
 cg2d: Sum(rhs),rhsMax =  -2.16313078560404E-13  5.60690712613062E-01
 cg2d: Sum(rhs),rhsMax =   7.05546732149287E-14  5.60905822208363E-01
 cg2d: Sum(rhs),rhsMax =  -8.53483950180589E-14  5.61116544004960E-01
 cg2d: Sum(rhs),rhsMax =   6.51700915454967E-14  5.61323358932410E-01
 cg2d: Sum(rhs),rhsMax =   3.85497189725470E-13  5.61526634263039E-01
 cg2d: Sum(rhs),rhsMax =   1.57901469677313E-13  5.61726979886004E-01
 cg2d: Sum(rhs),rhsMax =  -2.14411821630733E-14  5.61925034697078E-01
 cg2d: Sum(rhs),rhsMax =   2.85271806177434E-13  5.62121230202386E-01
 cg2d: Sum(rhs),rhsMax =   1.96856420053848E-13  5.62316169454134E-01
 cg2d: Sum(rhs),rhsMax =   1.74860126378462E-15  5.62510355573362E-01
 cg2d: Sum(rhs),rhsMax =   1.18752230271468E-13  5.62666566272069E-01
 cg2d: Sum(rhs),rhsMax =  -3.00356961524528E-13  5.62757506335528E-01
 cg2d: Sum(rhs),rhsMax =  -1.24122934153093E-13  5.62849094459029E-01
 cg2d: Sum(rhs),rhsMax =  -2.07361905424364E-13  5.62943054615269E-01
 cg2d: Sum(rhs),rhsMax =  -1.21833099164803E-13  5.63039056585109E-01
 cg2d: Sum(rhs),rhsMax =   1.09384723501194E-13  5.63137349547294E-01
 cg2d: Sum(rhs),rhsMax =  -9.92955717649124E-14  5.63238048646632E-01
 cg2d: Sum(rhs),rhsMax =   1.91138771477029E-13  5.63341289118165E-01
 cg2d: Sum(rhs),rhsMax =  -1.47271084216527E-13  5.63446153196818E-01
 cg2d: Sum(rhs),rhsMax =   7.39686090156511E-15  5.63552097940327E-01
 cg2d: Sum(rhs),rhsMax =  -1.06303854607859E-14  5.63658544268346E-01
 cg2d: Sum(rhs),rhsMax =   3.67345043272849E-13  5.63764877593046E-01
 cg2d: Sum(rhs),rhsMax =   4.23411306016419E-14  5.63870127352947E-01
 cg2d: Sum(rhs),rhsMax =   3.51510487384132E-13  5.63973592902675E-01
 cg2d: Sum(rhs),rhsMax =   2.62803667716582E-13  5.64074515030458E-01
 cg2d: Sum(rhs),rhsMax =   2.08083550390370E-13  5.64172087528210E-01
 cg2d: Sum(rhs),rhsMax =  -1.10245146345278E-13  5.64260440531328E-01
 cg2d: Sum(rhs),rhsMax =  -7.72298891504875E-14  5.64326025169749E-01
 cg2d: Sum(rhs),rhsMax =   1.72584169177981E-13  5.64386223462639E-01
 cg2d: Sum(rhs),rhsMax =  -8.70276073428045E-14  5.64441360999111E-01
 cg2d: Sum(rhs),rhsMax =   2.31883956480772E-13  5.64490806889288E-01
 cg2d: Sum(rhs),rhsMax =  -2.69922972861991E-14  5.64534390690958E-01
 cg2d: Sum(rhs),rhsMax =  -1.18544063454351E-13  5.64571871333274E-01
 cg2d: Sum(rhs),rhsMax =   1.98771554771326E-13  5.64603173209549E-01
 cg2d: Sum(rhs),rhsMax =   5.51059198272696E-13  5.64628319377204E-01
 cg2d: Sum(rhs),rhsMax =  -9.37999677930179E-14  5.64647394429402E-01
 cg2d: Sum(rhs),rhsMax =   4.83460493860832E-13  5.64660626650629E-01
 cg2d: Sum(rhs),rhsMax =   1.81188397618826E-13  5.64668246326002E-01
 cg2d: Sum(rhs),rhsMax =   2.44276820993150E-13  5.64670646957417E-01
 cg2d: Sum(rhs),rhsMax =   8.00748356510894E-15  5.64668236708470E-01
 cg2d: Sum(rhs),rhsMax =  -4.33819646872280E-14  5.64661602529011E-01
 cg2d: Sum(rhs),rhsMax =  -3.74700270810990E-14  5.64651268094783E-01
 cg2d: Sum(rhs),rhsMax =  -1.19418364086243E-13  5.64637614703675E-01
 cg2d: Sum(rhs),rhsMax =   1.69059211074796E-13  5.64621409944321E-01
 cg2d: Sum(rhs),rhsMax =  -3.60086960249362E-13  5.64603367350081E-01
 cg2d: Sum(rhs),rhsMax =   6.89032164657988E-14  5.64584100689386E-01
 cg2d: Sum(rhs),rhsMax =  -1.90597537752524E-13  5.64564267285183E-01
 cg2d: Sum(rhs),rhsMax =   1.98174809895590E-14  5.64544546131836E-01
 cg2d: Sum(rhs),rhsMax =   1.01946229236205E-13  5.64525496732488E-01
 cg2d: Sum(rhs),rhsMax =  -1.19751430993631E-13  5.64507384626802E-01
 cg2d: Sum(rhs),rhsMax =  -3.21867532626641E-13  5.64490668401242E-01
 cg2d: Sum(rhs),rhsMax =  -1.13950515689965E-13  5.64475629339451E-01
 cg2d: Sum(rhs),rhsMax =  -2.15383266777280E-14  5.64462435864626E-01
 cg2d: Sum(rhs),rhsMax =   1.86073378927176E-13  5.64451157231877E-01
 cg2d: Sum(rhs),rhsMax =   1.77871606332758E-13  5.64441703231840E-01
 cg2d: Sum(rhs),rhsMax =   4.23661106196960E-13  5.64433939576209E-01
 cg2d: Sum(rhs),rhsMax =   2.10387263166467E-13  5.64427551835446E-01
 cg2d: Sum(rhs),rhsMax =   3.02313729605430E-13  5.64422175226885E-01
 cg2d: Sum(rhs),rhsMax =   3.60989016456870E-13  5.64417342607091E-01
 cg2d: Sum(rhs),rhsMax =  -1.55889190445180E-13  5.64412505003570E-01
 cg2d: Sum(rhs),rhsMax =  -1.38541955685412E-13  5.64407060555939E-01
 cg2d: Sum(rhs),rhsMax =  -1.22235555011230E-13  5.64400240809030E-01
 cg2d: Sum(rhs),rhsMax =  -3.84636766881385E-13  5.64391415554564E-01
 cg2d: Sum(rhs),rhsMax =  -2.75654499226619E-13  5.64380053085485E-01
 cg2d: Sum(rhs),rhsMax =   3.91950361056104E-13  5.64365520252162E-01
 cg2d: Sum(rhs),rhsMax =   4.56787385694213E-13  5.64347149713694E-01
 cg2d: Sum(rhs),rhsMax =  -4.29017932290776E-13  5.64324474799392E-01
 cg2d: Sum(rhs),rhsMax =   1.95052307638832E-13  5.64297098612878E-01
 cg2d: Sum(rhs),rhsMax =  -2.04530836711569E-13  5.64264656057695E-01
 cg2d: Sum(rhs),rhsMax =   4.86694018420053E-13  5.64226884517243E-01
 cg2d: Sum(rhs),rhsMax =  -2.64510635616944E-14  5.64183621401511E-01
 cg2d: Sum(rhs),rhsMax =   1.23678844943242E-13  5.64134798291355E-01
 cg2d: Sum(rhs),rhsMax =   7.39130978644198E-14  5.64080475448964E-01
 cg2d: Sum(rhs),rhsMax =   9.00668428727158E-14  5.64020898597036E-01
 cg2d: Sum(rhs),rhsMax =   1.19099174966664E-13  5.63956375118733E-01
 cg2d: Sum(rhs),rhsMax =   1.05360165036927E-13  5.63887254627633E-01
 cg2d: Sum(rhs),rhsMax =   3.59295926344316E-14  5.63813970072618E-01
 cg2d: Sum(rhs),rhsMax =  -3.14054338090841E-14  5.63737015062539E-01
 cg2d: Sum(rhs),rhsMax =  -1.80841452923630E-13  5.63656936239817E-01
 cg2d: Sum(rhs),rhsMax =  -2.56877852322646E-14  5.63574137629454E-01
 cg2d: Sum(rhs),rhsMax =   2.22169505015302E-13  5.63489293110981E-01
 cg2d: Sum(rhs),rhsMax =   1.37667655053519E-14  5.63403161325497E-01
 cg2d: Sum(rhs),rhsMax =  -6.67521593555875E-14  5.63316787183530E-01
 cg2d: Sum(rhs),rhsMax =   2.63677968348475E-15  5.63230400737775E-01
 cg2d: Sum(rhs),rhsMax =   4.24174584345849E-13  5.63144926455080E-01
 cg2d: Sum(rhs),rhsMax =   5.11035658234960E-13  5.63060886125346E-01
 cg2d: Sum(rhs),rhsMax =   3.29111737862320E-13  5.62978840679637E-01
 cg2d: Sum(rhs),rhsMax =   3.44030359755720E-14  5.62899255870320E-01
 cg2d: Sum(rhs),rhsMax =   2.18935980456081E-13  5.62822513986061E-01
 cg2d: Sum(rhs),rhsMax =   1.06692432666478E-13  5.62749584140782E-01
 cg2d: Sum(rhs),rhsMax =   1.67282854235395E-13  5.62680196397523E-01
 cg2d: Sum(rhs),rhsMax =  -1.23623333792011E-13  5.62614007766951E-01
 cg2d: Sum(rhs),rhsMax =   4.38704628180631E-13  5.62550829822599E-01
 cg2d: Sum(rhs),rhsMax =   5.92859095149834E-14  5.62490382021869E-01
 cg2d: Sum(rhs),rhsMax =   3.25267590639555E-13  5.62432249090718E-01
 cg2d: Sum(rhs),rhsMax =   8.32112156956555E-14  5.62375995052444E-01
 cg2d: Sum(rhs),rhsMax =   1.07552855510562E-13  5.62321056586294E-01
 cg2d: Sum(rhs),rhsMax =   3.40810712984307E-13  5.62266866830990E-01
 cg2d: Sum(rhs),rhsMax =   3.41116024316079E-14  5.62212720887139E-01
 cg2d: Sum(rhs),rhsMax =   1.40013001193040E-13  5.62158013060097E-01
 cg2d: Sum(rhs),rhsMax =   1.33532074286791E-13  5.62102004457300E-01
 cg2d: Sum(rhs),rhsMax =   3.20021786848201E-13  5.62043905642001E-01
 cg2d: Sum(rhs),rhsMax =   1.65686908637497E-13  5.61983299959503E-01
 cg2d: Sum(rhs),rhsMax =   4.84889906005037E-13  5.61919110362060E-01
 cg2d: Sum(rhs),rhsMax =   1.75665038071315E-13  5.61851210738719E-01
 cg2d: Sum(rhs),rhsMax =   2.22377671832419E-13  5.61779055090937E-01
 cg2d: Sum(rhs),rhsMax =   4.37094804794924E-13  5.61702356413147E-01
 cg2d: Sum(rhs),rhsMax =  -4.55593895942741E-13  5.61620815357942E-01
 cg2d: Sum(rhs),rhsMax =  -1.93359217526279E-13  5.61534373166389E-01
 cg2d: Sum(rhs),rhsMax =  -2.03961847411449E-13  5.61443054425354E-01
 cg2d: Sum(rhs),rhsMax =   2.32272534539391E-13  5.61346859762235E-01
 cg2d: Sum(rhs),rhsMax =  -2.66162092366073E-13  5.61245980877662E-01
 cg2d: Sum(rhs),rhsMax =   8.55565618351761E-14  5.61140833335376E-01
 cg2d: Sum(rhs),rhsMax =   4.74564831876023E-13  5.61031848876572E-01
 cg2d: Sum(rhs),rhsMax =  -2.27873275804313E-14  5.60919542351123E-01
 cg2d: Sum(rhs),rhsMax =   2.17603712826531E-14  5.60804354251808E-01
 cg2d: Sum(rhs),rhsMax =   5.55083756736963E-13  5.60687094696146E-01
 cg2d: Sum(rhs),rhsMax =   1.15393805621977E-13  5.60568231423511E-01
 cg2d: Sum(rhs),rhsMax =   1.02362562870439E-13  5.60448574354520E-01
 cg2d: Sum(rhs),rhsMax =   2.65815147670878E-13  5.60328840708149E-01
 cg2d: Sum(rhs),rhsMax =  -6.80983047729455E-14  5.60209793879592E-01
 cg2d: Sum(rhs),rhsMax =   4.76368944291039E-13  5.60092128566516E-01
 cg2d: Sum(rhs),rhsMax =  -2.01338945515772E-13  5.59976532421235E-01
 cg2d: Sum(rhs),rhsMax =   2.51298981623904E-13  5.59863586271259E-01
 cg2d: Sum(rhs),rhsMax =   1.80272463623510E-13  5.59753820631553E-01
 cg2d: Sum(rhs),rhsMax =  -7.02077285197333E-14  5.59647653043212E-01
 cg2d: Sum(rhs),rhsMax =  -2.27762253501851E-13  5.59545426129558E-01
 cg2d: Sum(rhs),rhsMax =   7.26918525373321E-14  5.59447320156661E-01
 cg2d: Sum(rhs),rhsMax =   4.53109771925142E-14  5.59353440102888E-01
 cg2d: Sum(rhs),rhsMax =  -6.22973894692791E-14  5.59263724430649E-01
 cg2d: Sum(rhs),rhsMax =  -2.08374983934334E-13  5.59178035235273E-01
 cg2d: Sum(rhs),rhsMax =  -2.49064657786846E-13  5.59096069288986E-01
 cg2d: Sum(rhs),rhsMax =   3.96765953425415E-13  5.59017499127122E-01
 cg2d: Sum(rhs),rhsMax =   7.33579863521072E-14  5.58941868403482E-01
 cg2d: Sum(rhs),rhsMax =  -1.35724764760425E-13  5.58868631631883E-01
 cg2d: Sum(rhs),rhsMax =  -2.28983498828939E-15  5.58797131696527E-01
 cg2d: Sum(rhs),rhsMax =  -8.74161854014233E-14  5.58726657280455E-01
 cg2d: Sum(rhs),rhsMax =   1.85129689356245E-13  5.58656494842582E-01
 cg2d: Sum(rhs),rhsMax =  -1.81216153194441E-13  5.58585877003665E-01
 cg2d: Sum(rhs),rhsMax =   7.19146964200945E-14  5.58514056006899E-01
 cg2d: Sum(rhs),rhsMax =  -2.71560551823313E-13  5.58440328287955E-01
 cg2d: Sum(rhs),rhsMax =  -7.04436509124662E-14  5.58363901489178E-01
 cg2d: Sum(rhs),rhsMax =  -5.98271432394881E-14  5.58284158275213E-01
 cg2d: Sum(rhs),rhsMax =  -1.14838694109665E-13  5.58200434745318E-01
 cg2d: Sum(rhs),rhsMax =  -4.25909307821826E-14  5.58112464339761E-01
 cg2d: Sum(rhs),rhsMax =  -4.01567668006919E-13  5.58019926714772E-01
 cg2d: Sum(rhs),rhsMax =   1.41275879883551E-13  5.57922747337074E-01
 cg2d: Sum(rhs),rhsMax =   4.40619762898109E-14  5.57820821795176E-01
 cg2d: Sum(rhs),rhsMax =  -1.04985464766116E-13  5.57714020137371E-01
 cg2d: Sum(rhs),rhsMax =  -3.32858740570430E-13  5.57602607023605E-01
 cg2d: Sum(rhs),rhsMax =   1.51420542771064E-13  5.57486838973534E-01
 cg2d: Sum(rhs),rhsMax =   3.17121329196368E-13  5.57367069977228E-01
 cg2d: Sum(rhs),rhsMax =   2.61443644511417E-13  5.57243709107057E-01
 cg2d: Sum(rhs),rhsMax =  -2.92987856198579E-13  5.57117313640355E-01
 cg2d: Sum(rhs),rhsMax =   2.64899213675562E-13  5.56988689195974E-01
 cg2d: Sum(rhs),rhsMax =  -3.84831055910695E-14  5.56858397214769E-01
 cg2d: Sum(rhs),rhsMax =  -1.93386973101894E-13  5.56727206356782E-01
 cg2d: Sum(rhs),rhsMax =   3.77212150404205E-13  5.56595920228984E-01
 cg2d: Sum(rhs),rhsMax =  -1.04749542373384E-13  5.56465332550248E-01
 cg2d: Sum(rhs),rhsMax =   3.23172044680575E-13  5.56336199220006E-01
 cg2d: Sum(rhs),rhsMax =   1.61246016538996E-13  5.56209266663632E-01
 cg2d: Sum(rhs),rhsMax =   6.79317713192518E-14  5.56085215948145E-01
 cg2d: Sum(rhs),rhsMax =   3.33066907387547E-14  5.55964555172118E-01
 cg2d: Sum(rhs),rhsMax =  -2.73753242296948E-13  5.55847831101359E-01
 cg2d: Sum(rhs),rhsMax =  -1.26357257990151E-13  5.55735454772759E-01
 cg2d: Sum(rhs),rhsMax =   1.20667364988947E-13  5.55627659535378E-01
 cg2d: Sum(rhs),rhsMax =   8.55149284717527E-14  5.55524620387738E-01
 cg2d: Sum(rhs),rhsMax =   5.12603848257243E-13  5.55426340975582E-01
 cg2d: Sum(rhs),rhsMax =  -4.29378754773779E-14  5.55332736179379E-01
 cg2d: Sum(rhs),rhsMax =   7.08599845467006E-13  5.55243553515831E-01
 cg2d: Sum(rhs),rhsMax =   1.91083260325797E-13  5.55158460182298E-01
 cg2d: Sum(rhs),rhsMax =   1.09384723501194E-13  5.55076972058271E-01
 cg2d: Sum(rhs),rhsMax =   7.47873984963121E-14  5.54998543707236E-01
 cg2d: Sum(rhs),rhsMax =   2.81386025591246E-13  5.54922523692590E-01
 cg2d: Sum(rhs),rhsMax =   3.62002094966840E-13  5.54848225295908E-01
 cg2d: Sum(rhs),rhsMax =   2.79082312815149E-14  5.54774861847077E-01
 cg2d: Sum(rhs),rhsMax =  -2.01116900910847E-13  5.54701661730122E-01
 cg2d: Sum(rhs),rhsMax =  -5.77593528561238E-14  5.54627831590625E-01
 cg2d: Sum(rhs),rhsMax =   1.87252990890840E-13  5.54552593873825E-01
 cg2d: Sum(rhs),rhsMax =   2.15341633413857E-13  5.54475207899211E-01
 cg2d: Sum(rhs),rhsMax =   3.01716984729694E-13  5.54394840102727E-01
 cg2d: Sum(rhs),rhsMax =   2.94514412857438E-13  5.54310769436692E-01
 cg2d: Sum(rhs),rhsMax =   1.91485716172224E-13  5.54219323026754E-01
 cg2d: Sum(rhs),rhsMax =  -1.48672740785116E-13  5.54123729066988E-01
 cg2d: Sum(rhs),rhsMax =   3.90382171033821E-14  5.54023807365924E-01
 cg2d: Sum(rhs),rhsMax =   4.12586631526324E-13  5.53919461969901E-01
 cg2d: Sum(rhs),rhsMax =  -4.70873340319145E-14  5.53810658691315E-01
 cg2d: Sum(rhs),rhsMax =  -1.07566733298370E-13  5.53697406207577E-01
 cg2d: Sum(rhs),rhsMax =  -1.92026949896729E-13  5.53579636251725E-01
 cg2d: Sum(rhs),rhsMax =  -2.42528219729365E-13  5.53457685378952E-01
 cg2d: Sum(rhs),rhsMax =  -1.50018886202474E-13  5.53332056115003E-01
 cg2d: Sum(rhs),rhsMax =   2.18020046460765E-14  5.53203240588135E-01
 cg2d: Sum(rhs),rhsMax =   1.51240131529562E-13  5.53071851710042E-01
 cg2d: Sum(rhs),rhsMax =   1.96509475358653E-14  5.52938535053023E-01
 cg2d: Sum(rhs),rhsMax =  -2.90045765183322E-14  5.52804056332951E-01
 cg2d: Sum(rhs),rhsMax =   5.68295410730002E-14  5.52669198733417E-01
 cg2d: Sum(rhs),rhsMax =   1.90167326330482E-13  5.52534764245208E-01
 cg2d: Sum(rhs),rhsMax =  -1.78745906964650E-14  5.52401530876351E-01
 cg2d: Sum(rhs),rhsMax =   1.23540067065164E-13  5.52270280773015E-01
 cg2d: Sum(rhs),rhsMax =   1.32172051081625E-13  5.52141705308582E-01
 cg2d: Sum(rhs),rhsMax =  -3.37702088515357E-13  5.52016526712417E-01
 cg2d: Sum(rhs),rhsMax =   4.44214109940333E-13  5.51895317298826E-01
 cg2d: Sum(rhs),rhsMax =  -2.05252481677576E-14  5.51778535208822E-01
 cg2d: Sum(rhs),rhsMax =   4.87471174537291E-13  5.51663927190878E-01
 cg2d: Sum(rhs),rhsMax =   1.09495745803656E-14  5.51554188374829E-01
 cg2d: Sum(rhs),rhsMax =  -4.50833814724660E-13  5.51449497485746E-01
 cg2d: Sum(rhs),rhsMax =   1.12507225757952E-13  5.51349760332128E-01
 cg2d: Sum(rhs),rhsMax =   7.58282325818982E-14  5.51254873849892E-01
 cg2d: Sum(rhs),rhsMax =   5.69974623054748E-13  5.51164574020719E-01
 cg2d: Sum(rhs),rhsMax =  -1.32810429320784E-13  5.51078526379974E-01
 cg2d: Sum(rhs),rhsMax =   1.58886792611668E-13  5.50996228557762E-01
 cg2d: Sum(rhs),rhsMax =   4.77104467044853E-13  5.50917098100581E-01
 cg2d: Sum(rhs),rhsMax =  -1.53183021822656E-13  5.50840456911398E-01
 cg2d: Sum(rhs),rhsMax =   3.64527852347862E-13  5.50765585330706E-01
 cg2d: Sum(rhs),rhsMax =  -2.50105491872432E-13  5.50691694131859E-01
 cg2d: Sum(rhs),rhsMax =  -2.76084710648661E-13  5.50618007792529E-01
 cg2d: Sum(rhs),rhsMax =   7.66192664869436E-14  5.50543718512615E-01
 cg2d: Sum(rhs),rhsMax =   1.89140370032703E-13  5.50467900851308E-01
 cg2d: Sum(rhs),rhsMax =  -3.11542458497627E-13  5.50389880687620E-01
 cg2d: Sum(rhs),rhsMax =  -1.01391117723892E-13  5.50309039953786E-01
 cg2d: Sum(rhs),rhsMax =   1.58775770309205E-13  5.50224758617694E-01
 cg2d: Sum(rhs),rhsMax =  -1.26815224987809E-13  5.50136653824451E-01
 cg2d: Sum(rhs),rhsMax =   2.80331313717852E-14  5.50044417216142E-01
 cg2d: Sum(rhs),rhsMax =   3.11972669919669E-13  5.49947872400854E-01
 cg2d: Sum(rhs),rhsMax =   5.98410210272959E-14  5.49846794578247E-01
 cg2d: Sum(rhs),rhsMax =  -1.28480559524746E-13  5.49741113522464E-01
 cg2d: Sum(rhs),rhsMax =  -7.44265760133089E-14  5.49630973191077E-01
 cg2d: Sum(rhs),rhsMax =   3.06768499491739E-13  5.49516582394744E-01
 cg2d: Sum(rhs),rhsMax =   4.41174874410422E-13  5.49398315063201E-01
 cg2d: Sum(rhs),rhsMax =  -3.80029341329191E-13  5.49276859809089E-01
 cg2d: Sum(rhs),rhsMax =   1.13034581694649E-13  5.49152177510428E-01
 cg2d: Sum(rhs),rhsMax =   3.38326588966709E-13  5.49025751299125E-01
 cg2d: Sum(rhs),rhsMax =  -1.13839493387502E-13  5.48897819331848E-01
 cg2d: Sum(rhs),rhsMax =  -2.03906336260218E-13  5.48768985062278E-01
 cg2d: Sum(rhs),rhsMax =   4.20607992879241E-13  5.48640270599354E-01
 cg2d: Sum(rhs),rhsMax =   2.17881268582687E-13  5.48512817254413E-01
 cg2d: Sum(rhs),rhsMax =  -3.38701289237520E-13  5.48387035109384E-01
 cg2d: Sum(rhs),rhsMax =  -1.98591143529825E-14  5.48263528610579E-01
 cg2d: Sum(rhs),rhsMax =  -2.05169214950729E-13  5.48143169521928E-01
 cg2d: Sum(rhs),rhsMax =   1.39860345527154E-13  5.48026931416966E-01
 cg2d: Sum(rhs),rhsMax =  -5.58594837052340E-13  5.47914894651194E-01
 cg2d: Sum(rhs),rhsMax =  -1.40859546249317E-14  5.47807382273967E-01
 cg2d: Sum(rhs),rhsMax =   1.28272392707629E-13  5.47704952592535E-01
 cg2d: Sum(rhs),rhsMax =   1.54001811303317E-13  5.47607672440666E-01
 cg2d: Sum(rhs),rhsMax =  -1.45342071711241E-13  5.47515571243343E-01
 cg2d: Sum(rhs),rhsMax =   2.60735877333218E-13  5.47428510731729E-01
 cg2d: Sum(rhs),rhsMax =  -3.67095243092308E-13  5.47346260779756E-01
 cg2d: Sum(rhs),rhsMax =   2.69284594622832E-13  5.47268438746465E-01
 cg2d: Sum(rhs),rhsMax =  -6.18533002594290E-14  5.47194570333829E-01
 cg2d: Sum(rhs),rhsMax =   2.16174300682326E-13  5.47124014177882E-01
 cg2d: Sum(rhs),rhsMax =  -8.87345752431656E-14  5.47056061825918E-01
 cg2d: Sum(rhs),rhsMax =   2.33812968986058E-13  5.46990001953573E-01
 cg2d: Sum(rhs),rhsMax =   3.23741033980696E-13  5.46925049399195E-01
 cg2d: Sum(rhs),rhsMax =  -2.54185561487930E-13  5.46860362801650E-01
 cg2d: Sum(rhs),rhsMax =  -2.55559462480903E-13  5.46794955476855E-01
 cg2d: Sum(rhs),rhsMax =  -2.52353693497298E-13  5.46728055541090E-01
 cg2d: Sum(rhs),rhsMax =  -2.71893618730701E-13  5.46658947273740E-01
 cg2d: Sum(rhs),rhsMax =   1.42108547152020E-13  5.46586970743626E-01
 cg2d: Sum(rhs),rhsMax =  -5.09925435210334E-13  5.46512451085492E-01
 cg2d: Sum(rhs),rhsMax =   1.71765379697320E-13  5.46433783792461E-01
 cg2d: Sum(rhs),rhsMax =  -1.45772283133283E-13  5.46350595058420E-01
 cg2d: Sum(rhs),rhsMax =   5.96606097857943E-14  5.46262563259598E-01
 cg2d: Sum(rhs),rhsMax =  -1.36501920877663E-13  5.46169596067495E-01
 cg2d: Sum(rhs),rhsMax =   1.89542825879130E-13  5.46071676001027E-01
 cg2d: Sum(rhs),rhsMax =   3.43780559575180E-13  5.45968907770710E-01
 cg2d: Sum(rhs),rhsMax =   1.53904666788662E-13  5.45861375874331E-01
 cg2d: Sum(rhs),rhsMax =  -7.66608998503671E-14  5.45749460959610E-01
 cg2d: Sum(rhs),rhsMax =   2.66869859544272E-13  5.45633651683557E-01
 cg2d: Sum(rhs),rhsMax =   2.66578426000308E-13  5.45514549216740E-01
 cg2d: Sum(rhs),rhsMax =   3.62543328691345E-13  5.45392835898663E-01
 cg2d: Sum(rhs),rhsMax =   5.21901966088478E-13  5.45269272609792E-01
 cg2d: Sum(rhs),rhsMax =   4.05481204168723E-13  5.45144588613749E-01
 cg2d: Sum(rhs),rhsMax =   5.73985303731206E-14  5.45019478807565E-01
 cg2d: Sum(rhs),rhsMax =   3.53744811221191E-13  5.44894774891012E-01
 cg2d: Sum(rhs),rhsMax =  -1.84449677753662E-13  5.44771293607068E-01
 cg2d: Sum(rhs),rhsMax =   7.57588436428591E-14  5.44649852348383E-01
 cg2d: Sum(rhs),rhsMax =  -4.07632261278934E-13  5.44531164770673E-01
 cg2d: Sum(rhs),rhsMax =  -2.32591723658970E-13  5.44415913946647E-01
 cg2d: Sum(rhs),rhsMax =  -7.76739783603375E-14  5.44304673580706E-01
 cg2d: Sum(rhs),rhsMax =   2.90101276334553E-13  5.44197926911278E-01
 cg2d: Sum(rhs),rhsMax =   3.56006890633864E-13  5.44096031577917E-01
 cg2d: Sum(rhs),rhsMax =  -1.31214483722886E-13  5.43999219696178E-01
 cg2d: Sum(rhs),rhsMax =   2.26096918964913E-13  5.43907596069596E-01
 cg2d: Sum(rhs),rhsMax =   1.23692722731050E-13  5.43821112996548E-01
 cg2d: Sum(rhs),rhsMax =  -1.67518776628128E-13  5.43739619544909E-01
 cg2d: Sum(rhs),rhsMax =   2.22433182983650E-13  5.43662813099150E-01
 cg2d: Sum(rhs),rhsMax =  -1.36071709455621E-13  5.43590262944152E-01
 cg2d: Sum(rhs),rhsMax =  -4.65225080681364E-13  5.43521452690313E-01
 cg2d: Sum(rhs),rhsMax =   8.73329186745764E-14  5.43455760642974E-01
 cg2d: Sum(rhs),rhsMax =  -1.47340473155566E-13  5.43391795209157E-01
 cg2d: Sum(rhs),rhsMax =   2.10165218561542E-13  5.43329291418597E-01
 cg2d: Sum(rhs),rhsMax =  -4.78228567857286E-14  5.43267495695826E-01
 cg2d: Sum(rhs),rhsMax =   4.60825821946287E-13  5.43205561647015E-01
 cg2d: Sum(rhs),rhsMax =   1.75331971163928E-13  5.43142704713360E-01
 cg2d: Sum(rhs),rhsMax =  -7.25391968714462E-14  5.43078195772405E-01
 cg2d: Sum(rhs),rhsMax =  -8.81933415186609E-14  5.43011144173568E-01
 cg2d: Sum(rhs),rhsMax =  -2.55753751510213E-13  5.42940892715938E-01
 cg2d: Sum(rhs),rhsMax =  -1.28064225890512E-13  5.42866914853993E-01
 cg2d: Sum(rhs),rhsMax =  -3.42573192035900E-13  5.42788819351708E-01
 cg2d: Sum(rhs),rhsMax =   3.56659146660832E-13  5.42706293968508E-01
 cg2d: Sum(rhs),rhsMax =  -1.13006826119033E-13  5.42619163982773E-01
 cg2d: Sum(rhs),rhsMax =   1.52558521371304E-13  5.42527424464523E-01
 cg2d: Sum(rhs),rhsMax =   6.39072128549856E-14  5.42431178924833E-01
 cg2d: Sum(rhs),rhsMax =   5.02237140764805E-14  5.42330581387766E-01
 cg2d: Sum(rhs),rhsMax =   1.24303345394594E-13  5.42225774947073E-01
 cg2d: Sum(rhs),rhsMax =  -6.00630656322210E-14  5.42117205242505E-01
 cg2d: Sum(rhs),rhsMax =   6.33798569182886E-14  5.42005435583798E-01
 cg2d: Sum(rhs),rhsMax =  -4.84196016614646E-14  5.41891090242827E-01
 cg2d: Sum(rhs),rhsMax =  -5.78884162827364E-13  5.41774895357328E-01
 cg2d: Sum(rhs),rhsMax =   2.37088126908702E-13  5.41657644464979E-01
 cg2d: Sum(rhs),rhsMax =   9.67559365960824E-14  5.41540153745565E-01
 cg2d: Sum(rhs),rhsMax =   2.30260255307257E-13  5.41423288755772E-01
 cg2d: Sum(rhs),rhsMax =   3.24990034883399E-13  5.41307658423883E-01
 cg2d: Sum(rhs),rhsMax =   1.52489132432265E-13  5.41194037845824E-01
 cg2d: Sum(rhs),rhsMax =  -6.00575145170978E-13  5.41083180074247E-01
 cg2d: Sum(rhs),rhsMax =  -3.38340466754516E-14  5.40975768924854E-01
 cg2d: Sum(rhs),rhsMax =  -3.00620639492877E-13  5.40872397842003E-01
 cg2d: Sum(rhs),rhsMax =   3.94323462771240E-13  5.40773563586063E-01
 cg2d: Sum(rhs),rhsMax =   3.14887005359310E-14  5.40666010306698E-01
 cg2d: Sum(rhs),rhsMax =   1.96426208631806E-13  5.40563503126226E-01
 cg2d: Sum(rhs),rhsMax =  -1.82631687550838E-14  5.40466714853380E-01
 cg2d: Sum(rhs),rhsMax =  -2.91058843693293E-13  5.40375625531317E-01
 cg2d: Sum(rhs),rhsMax =  -3.70176111985643E-13  5.40290174529650E-01
 cg2d: Sum(rhs),rhsMax =  -5.16128806360427E-13  5.40210153424804E-01
 cg2d: Sum(rhs),rhsMax =   6.67521593555875E-15  5.40135212807701E-01
 cg2d: Sum(rhs),rhsMax =   2.04683492377455E-13  5.40064894299328E-01
 cg2d: Sum(rhs),rhsMax =  -7.84233789019595E-14  5.39998602853946E-01
 cg2d: Sum(rhs),rhsMax =  -6.71823707776298E-14  5.39935650002735E-01
 cg2d: Sum(rhs),rhsMax =   4.97019092549067E-13  5.39875242225886E-01
 cg2d: Sum(rhs),rhsMax =   1.92762472650543E-14  5.39816297366411E-01
 cg2d: Sum(rhs),rhsMax =  -2.85008128209085E-13  5.39757989264416E-01
 cg2d: Sum(rhs),rhsMax =   1.40720768371239E-13  5.39699492925938E-01
 cg2d: Sum(rhs),rhsMax =   1.65131797125184E-13  5.39639744570615E-01
 cg2d: Sum(rhs),rhsMax =   4.60284588221782E-13  5.39577943328657E-01
 cg2d: Sum(rhs),rhsMax =   5.62438984275104E-13  5.39513360599465E-01
 cg2d: Sum(rhs),rhsMax =  -2.91572321842182E-14  5.39445380750926E-01
 cg2d: Sum(rhs),rhsMax =  -3.33455485446166E-13  5.39373683553521E-01
 cg2d: Sum(rhs),rhsMax =  -3.08905678814142E-13  5.39297782462132E-01
 cg2d: Sum(rhs),rhsMax =   2.32078245510081E-13  5.39217294745238E-01
 cg2d: Sum(rhs),rhsMax =  -6.26013130222702E-13  5.39132159583848E-01
 cg2d: Sum(rhs),rhsMax =   2.63511434894781E-13  5.39042391688622E-01
 cg2d: Sum(rhs),rhsMax =  -5.86364290455776E-13  5.38948145779470E-01
 cg2d: Sum(rhs),rhsMax =   1.35072508733458E-13  5.38849669824106E-01
 cg2d: Sum(rhs),rhsMax =  -1.36557432028894E-14  5.38747075285218E-01
 cg2d: Sum(rhs),rhsMax =   5.50531842335999E-14  5.38640906662365E-01
 cg2d: Sum(rhs),rhsMax =  -5.77732306439316E-14  5.38531772414046E-01
 cg2d: Sum(rhs),rhsMax =   5.87307980026708E-14  5.38420371408265E-01
 cg2d: Sum(rhs),rhsMax =  -1.96231919602496E-14  5.38307475799402E-01
 cg2d: Sum(rhs),rhsMax =  -2.84425261121157E-13  5.38193919970489E-01
 cg2d: Sum(rhs),rhsMax =  -1.22679644221080E-14  5.38080558318080E-01
 cg2d: Sum(rhs),rhsMax =   1.87697080100691E-13  5.37968390307805E-01
 cg2d: Sum(rhs),rhsMax =   1.33310029681866E-13  5.37858228786155E-01
 cg2d: Sum(rhs),rhsMax =   2.45928277742280E-13  5.37750681268799E-01
 cg2d: Sum(rhs),rhsMax =  -4.44463910120874E-13  5.37646409209646E-01
 cg2d: Sum(rhs),rhsMax =  -7.50788320402762E-14  5.37546110361943E-01
 cg2d: Sum(rhs),rhsMax =   2.42861286636753E-14  5.37450378050760E-01
 cg2d: Sum(rhs),rhsMax =   8.18928258539131E-14  5.37359699437051E-01
 cg2d: Sum(rhs),rhsMax =  -3.18495230189342E-14  5.37274419979893E-01
 cg2d: Sum(rhs),rhsMax =   4.72608063795121E-13  5.37194759167594E-01
 cg2d: Sum(rhs),rhsMax =  -1.68906555408910E-13  5.37120776601491E-01
 cg2d: Sum(rhs),rhsMax =   1.33767996679524E-13  5.37052407334300E-01
 cg2d: Sum(rhs),rhsMax =   2.52992071736458E-14  5.36989423124980E-01
 cg2d: Sum(rhs),rhsMax =  -2.84466894484581E-13  5.36931485054003E-01
 cg2d: Sum(rhs),rhsMax =  -2.95610758094256E-13  5.36878106603207E-01
 cg2d: Sum(rhs),rhsMax =   2.42306175124440E-13  5.36828671778931E-01
 cg2d: Sum(rhs),rhsMax =   2.25916507723412E-13  5.36782434865256E-01
 cg2d: Sum(rhs),rhsMax =  -5.65658631046517E-14  5.36738770648620E-01
 cg2d: Sum(rhs),rhsMax =  -8.54871728961371E-15  5.36696164869681E-01
 cg2d: Sum(rhs),rhsMax =  -3.35009797680641E-14  5.36654044036431E-01
 cg2d: Sum(rhs),rhsMax =  -1.00267016911459E-13  5.36611477960199E-01
 cg2d: Sum(rhs),rhsMax =  -3.39700489959682E-13  5.36567284938457E-01
 cg2d: Sum(rhs),rhsMax =  -1.58956181550707E-13  5.36520763222615E-01
 cg2d: Sum(rhs),rhsMax =  -5.96467319979865E-14  5.36471539244889E-01
 cg2d: Sum(rhs),rhsMax =  -4.82947015711943E-14  5.36418547077996E-01
 cg2d: Sum(rhs),rhsMax =   6.27553564669370E-14  5.36361001376745E-01
 cg2d: Sum(rhs),rhsMax =  -2.93695623376777E-13  5.36299268891341E-01
 cg2d: Sum(rhs),rhsMax =  -1.05512820702813E-13  5.36232527360069E-01
 cg2d: Sum(rhs),rhsMax =   1.45009004803853E-13  5.36160281353174E-01
 cg2d: Sum(rhs),rhsMax =  -4.12447853648246E-14  5.36083346093084E-01
 cg2d: Sum(rhs),rhsMax =   1.30076505122645E-13  5.36001340934848E-01
 cg2d: Sum(rhs),rhsMax =   4.98059926634653E-13  5.35914026815050E-01
 cg2d: Sum(rhs),rhsMax =   1.87072579649339E-14  5.35822723765750E-01
 cg2d: Sum(rhs),rhsMax =   4.19803081186387E-14  5.35727041071112E-01
 cg2d: Sum(rhs),rhsMax =  -9.37167010661710E-14  5.35627156379829E-01
 cg2d: Sum(rhs),rhsMax =  -1.89848137210902E-14  5.35524691230179E-01
 cg2d: Sum(rhs),rhsMax =   4.68791672147972E-14  5.35419864776455E-01
 cg2d: Sum(rhs),rhsMax =   4.19594914369270E-13  5.35313158694550E-01
 cg2d: Sum(rhs),rhsMax =  -3.75519060291651E-13  5.35206325574792E-01
 cg2d: Sum(rhs),rhsMax =  -3.77892162006788E-14  5.35099567549009E-01
 cg2d: Sum(rhs),rhsMax =   2.28123075984854E-13  5.34994025139268E-01
 cg2d: Sum(rhs),rhsMax =   1.07247544178790E-13  5.34890570865331E-01
 cg2d: Sum(rhs),rhsMax =  -1.95676808090184E-14  5.34789958000034E-01
 cg2d: Sum(rhs),rhsMax =  -1.90195081906097E-13  5.34692841395412E-01
 cg2d: Sum(rhs),rhsMax =   1.18863252573931E-13  5.34599930351186E-01
 cg2d: Sum(rhs),rhsMax =   2.59792187762287E-14  5.34511655698927E-01
 cg2d: Sum(rhs),rhsMax =  -1.40970568551779E-13  5.34428453319377E-01
 cg2d: Sum(rhs),rhsMax =  -3.69287933565943E-14  5.34350688101960E-01
 cg2d: Sum(rhs),rhsMax =  -1.12090892123717E-13  5.34278573871870E-01
 cg2d: Sum(rhs),rhsMax =   2.27498575533502E-13  5.34212172075193E-01
 cg2d: Sum(rhs),rhsMax =  -4.33680868994202E-14  5.34151309728945E-01
 cg2d: Sum(rhs),rhsMax =  -2.37657116208823E-13  5.34095632801109E-01
 cg2d: Sum(rhs),rhsMax =  -3.98722721506317E-13  5.34044959432769E-01
 cg2d: Sum(rhs),rhsMax =  -1.73833170080684E-13  5.33998807784422E-01
 cg2d: Sum(rhs),rhsMax =   1.49283363448660E-13  5.33956552647674E-01
 cg2d: Sum(rhs),rhsMax =   2.66467403697845E-13  5.33917377690911E-01
 cg2d: Sum(rhs),rhsMax =   1.29188326702945E-13  5.33880287730430E-01
 cg2d: Sum(rhs),rhsMax =   4.98906471690930E-14  5.33844492107716E-01
 cg2d: Sum(rhs),rhsMax =  -3.99180688503975E-13  5.33808926453561E-01
 cg2d: Sum(rhs),rhsMax =   1.53210777398272E-13  5.33772944899613E-01
 cg2d: Sum(rhs),rhsMax =  -8.25450818808804E-14  5.33735519243428E-01
 cg2d: Sum(rhs),rhsMax =  -2.02865502174632E-13  5.33695882740670E-01
 cg2d: Sum(rhs),rhsMax =  -1.92582061409041E-13  5.33653327392255E-01
 cg2d: Sum(rhs),rhsMax =  -1.27939325800241E-13  5.33607246277749E-01
 cg2d: Sum(rhs),rhsMax =   2.40668596163118E-13  5.33557117344878E-01
 cg2d: Sum(rhs),rhsMax =   1.66075486696116E-13  5.33495182180652E-01
 cg2d: Sum(rhs),rhsMax =  -9.07746100509144E-14  5.33397265932073E-01
 cg2d: Sum(rhs),rhsMax =   1.72320491209632E-13  5.33293992579622E-01
 cg2d: Sum(rhs),rhsMax =  -2.91155988207947E-14  5.33186051089704E-01
 cg2d: Sum(rhs),rhsMax =  -1.88710158610661E-13  5.33073476311208E-01
 cg2d: Sum(rhs),rhsMax =  -2.49730791601621E-13  5.32956691514733E-01
 cg2d: Sum(rhs),rhsMax =  -9.87127046769842E-14  5.32836068914704E-01
 cg2d: Sum(rhs),rhsMax =   3.68913233295132E-13  5.32711952016811E-01
 cg2d: Sum(rhs),rhsMax =   1.33532074286791E-13  5.32585015817587E-01
 cg2d: Sum(rhs),rhsMax =   1.24358856545825E-13  5.32456013878492E-01
 cg2d: Sum(rhs),rhsMax =  -3.42073591674819E-13  5.32325751407955E-01
 cg2d: Sum(rhs),rhsMax =   6.00769434200288E-14  5.32195070612521E-01
 cg2d: Sum(rhs),rhsMax =  -2.75793277104697E-13  5.32064819626345E-01
 cg2d: Sum(rhs),rhsMax =   1.64313007644523E-13  5.31935861396003E-01
 cg2d: Sum(rhs),rhsMax =  -2.89379631368547E-13  5.31809055649089E-01
 cg2d: Sum(rhs),rhsMax =  -1.89376292425436E-13  5.31685108375665E-01
 cg2d: Sum(rhs),rhsMax =  -1.13353770814228E-13  5.31564748673035E-01
 cg2d: Sum(rhs),rhsMax =   2.91891510961761E-13  5.31448560970831E-01
 cg2d: Sum(rhs),rhsMax =   1.80411241501588E-16  5.31336934999119E-01
 cg2d: Sum(rhs),rhsMax =  -9.09966546558394E-14  5.31230223363222E-01
 cg2d: Sum(rhs),rhsMax =  -2.74655298504456E-13  5.31128550359366E-01
 cg2d: Sum(rhs),rhsMax =  -6.88754608901831E-14  5.31032205713656E-01
 cg2d: Sum(rhs),rhsMax =  -2.97817326355698E-14  5.30941188044704E-01
 cg2d: Sum(rhs),rhsMax =   2.56739074444567E-15  5.30855319291738E-01
 cg2d: Sum(rhs),rhsMax =  -3.35093064407488E-13  5.30774304619315E-01
 cg2d: Sum(rhs),rhsMax =   1.56319401867222E-13  5.30697783832199E-01
 cg2d: Sum(rhs),rhsMax =   1.61273772114612E-13  5.30625224397256E-01
 cg2d: Sum(rhs),rhsMax =   1.80411241501588E-13  5.30556183156072E-01
 cg2d: Sum(rhs),rhsMax =   2.71935252094124E-13  5.30489719518636E-01
 cg2d: Sum(rhs),rhsMax =  -1.80494508228435E-13  5.30424759470214E-01
 cg2d: Sum(rhs),rhsMax =   6.94971857839732E-13  5.30360373482926E-01
 cg2d: Sum(rhs),rhsMax =   2.77972089790524E-14  5.30295394094841E-01
 cg2d: Sum(rhs),rhsMax =  -2.10498285468930E-13  5.30229379505161E-01
 cg2d: Sum(rhs),rhsMax =   2.22266649529956E-13  5.30161562981793E-01
 cg2d: Sum(rhs),rhsMax =  -9.42163014272523E-14  5.30091231761092E-01
 cg2d: Sum(rhs),rhsMax =  -5.23414644959530E-13  5.30017741488280E-01
 cg2d: Sum(rhs),rhsMax =  -1.44287359837847E-13  5.29940540993947E-01
 cg2d: Sum(rhs),rhsMax =  -1.87613813373844E-13  5.29859175373956E-01
 cg2d: Sum(rhs),rhsMax =   2.19338436302507E-13  5.29773317654947E-01
 cg2d: Sum(rhs),rhsMax =  -4.67390015579383E-13  5.29682782934590E-01
 cg2d: Sum(rhs),rhsMax =  -3.34482441743944E-13  5.29587456020216E-01
 cg2d: Sum(rhs),rhsMax =  -1.07261421966598E-13  5.29487412239035E-01
 cg2d: Sum(rhs),rhsMax =   3.67900154785161E-14  5.29382856026434E-01
 cg2d: Sum(rhs),rhsMax =   1.32380217898742E-13  5.29274072763322E-01
 cg2d: Sum(rhs),rhsMax =  -6.78235245743508E-13  5.29161507169829E-01
 cg2d: Sum(rhs),rhsMax =  -2.74461009475147E-13  5.29045546041816E-01
 cg2d: Sum(rhs),rhsMax =  -3.91894849904872E-13  5.28926611497825E-01
 cg2d: Sum(rhs),rhsMax =  -2.72004641033163E-14  5.28805411138170E-01
 cg2d: Sum(rhs),rhsMax =   3.47222250951518E-13  5.28682730014631E-01
 cg2d: Sum(rhs),rhsMax =  -3.39742123323106E-13  5.28559390120348E-01
 cg2d: Sum(rhs),rhsMax =  -2.26763052779688E-14  5.28436242849726E-01
 cg2d: Sum(rhs),rhsMax =   6.77902178836121E-13  5.28314135846865E-01
 cg2d: Sum(rhs),rhsMax =   3.85191878393698E-13  5.28193889284424E-01
 cg2d: Sum(rhs),rhsMax =  -1.43912659567036E-14  5.28076293014575E-01
 cg2d: Sum(rhs),rhsMax =   2.16132667318902E-13  5.27962058179242E-01
 cg2d: Sum(rhs),rhsMax =  -2.14800399689352E-13  5.27851817769181E-01
 cg2d: Sum(rhs),rhsMax =   5.18834974982951E-13  5.27746104731530E-01
 cg2d: Sum(rhs),rhsMax =  -2.03073668991749E-13  5.27645331655616E-01
 cg2d: Sum(rhs),rhsMax =   1.46410661372443E-14  5.27549782723844E-01
 cg2d: Sum(rhs),rhsMax =  -9.17321774096536E-14  5.27459519087083E-01
 cg2d: Sum(rhs),rhsMax =  -2.89962498456475E-13  5.27374547059155E-01
 cg2d: Sum(rhs),rhsMax =   9.86155601623295E-14  5.27294792322059E-01
 cg2d: Sum(rhs),rhsMax =   2.64371857738865E-14  5.27220025755008E-01
 cg2d: Sum(rhs),rhsMax =  -1.73971947958762E-13  5.27149904112016E-01
 cg2d: Sum(rhs),rhsMax =  -4.37427871702312E-14  5.27083963214381E-01
 cg2d: Sum(rhs),rhsMax =   1.15046860926782E-13  5.27021568211428E-01
 cg2d: Sum(rhs),rhsMax =  -1.50032763990282E-13  5.26961785736336E-01
 cg2d: Sum(rhs),rhsMax =   2.08222328268448E-13  5.26903634429914E-01
 cg2d: Sum(rhs),rhsMax =  -1.01099684179928E-13  5.26846298285892E-01
 cg2d: Sum(rhs),rhsMax =  -3.53994611401731E-13  5.26788976471163E-01
 cg2d: Sum(rhs),rhsMax =   5.19001508436645E-13  5.26730829160166E-01
 cg2d: Sum(rhs),rhsMax =   3.20674042875169E-13  5.26671078382565E-01
 cg2d: Sum(rhs),rhsMax =   3.28417848471929E-13  5.26608995215798E-01
 cg2d: Sum(rhs),rhsMax =   3.33455485446166E-13  5.26543894849212E-01
 cg2d: Sum(rhs),rhsMax =  -1.45133904894124E-13  5.26475171586430E-01
 cg2d: Sum(rhs),rhsMax =   2.11289319373975E-13  5.26402350716277E-01
 cg2d: Sum(rhs),rhsMax =  -3.08808534299487E-13  5.26325065131960E-01
 cg2d: Sum(rhs),rhsMax =   3.06060732313540E-13  5.26243064453997E-01
 cg2d: Sum(rhs),rhsMax =   3.65527053070025E-13  5.26156228673721E-01
 cg2d: Sum(rhs),rhsMax =   2.31231700453804E-13  5.26064583282477E-01
 cg2d: Sum(rhs),rhsMax =   3.97348820513344E-13  5.25968275836748E-01
 cg2d: Sum(rhs),rhsMax =   7.72160113626796E-14  5.25867597740658E-01
 cg2d: Sum(rhs),rhsMax =   6.02157212981069E-14  5.25762955475510E-01
 cg2d: Sum(rhs),rhsMax =  -2.09915418381001E-13  5.25654873029352E-01
 cg2d: Sum(rhs),rhsMax =   4.46476189353007E-13  5.25543729149588E-01
 cg2d: Sum(rhs),rhsMax =  -2.52353693497298E-13  5.25430108441411E-01
 cg2d: Sum(rhs),rhsMax =   2.98039370960623E-13  5.25314792484345E-01
 cg2d: Sum(rhs),rhsMax =  -1.63702384980979E-13  5.25198626171300E-01
 cg2d: Sum(rhs),rhsMax =   3.07420755518706E-13  5.25082506498928E-01
 cg2d: Sum(rhs),rhsMax =  -4.10532718930767E-13  5.24967318525719E-01
 cg2d: Sum(rhs),rhsMax =  -3.27265992083881E-13  5.24853922836482E-01
 cg2d: Sum(rhs),rhsMax =  -1.64673830127526E-13  5.24743136937147E-01
 cg2d: Sum(rhs),rhsMax =  -2.12566075852294E-13  5.24635731776744E-01
 cg2d: Sum(rhs),rhsMax =   2.96943025723806E-13  5.24532405042805E-01
 cg2d: Sum(rhs),rhsMax =   1.29452004671293E-13  5.24433719484134E-01
 cg2d: Sum(rhs),rhsMax =  -5.81687475964543E-13  5.24340150007480E-01
 cg2d: Sum(rhs),rhsMax =   4.05328548502837E-13  5.24252028851581E-01
 cg2d: Sum(rhs),rhsMax =   1.32296951171895E-13  5.24169562769982E-01
 cg2d: Sum(rhs),rhsMax =   1.08330011627800E-13  5.24092807991111E-01
 cg2d: Sum(rhs),rhsMax =  -1.72542535814557E-13  5.24021654090027E-01
 cg2d: Sum(rhs),rhsMax =  -1.78621006874380E-13  5.23955883746852E-01
 cg2d: Sum(rhs),rhsMax =  -1.34905975279764E-13  5.23895172005824E-01
 cg2d: Sum(rhs),rhsMax =   4.58938442804424E-14  5.23839004209716E-01
 cg2d: Sum(rhs),rhsMax =   6.55447918163077E-14  5.23786949214918E-01
 cg2d: Sum(rhs),rhsMax =   1.35252919974960E-13  5.23737770868104E-01
 cg2d: Sum(rhs),rhsMax =  -2.80789280715510E-13  5.23690735854646E-01
 cg2d: Sum(rhs),rhsMax =   1.01932351448397E-13  5.23644986241461E-01
 cg2d: Sum(rhs),rhsMax =   1.81021864165132E-13  5.23599591440888E-01
 cg2d: Sum(rhs),rhsMax =  -2.00797711791267E-13  5.23553752031471E-01
 cg2d: Sum(rhs),rhsMax =  -6.19185258621258E-13  5.23506551587424E-01
 cg2d: Sum(rhs),rhsMax =   6.67799149312032E-14  5.23457248642687E-01
 cg2d: Sum(rhs),rhsMax =  -2.07611705604904E-13  5.23405040302534E-01
 cg2d: Sum(rhs),rhsMax =  -4.92106355665101E-14  5.23349300131254E-01
 cg2d: Sum(rhs),rhsMax =   8.50569614740948E-14  5.23289414112394E-01
 cg2d: Sum(rhs),rhsMax =  -3.34565708470791E-13  5.23224958854402E-01
 cg2d: Sum(rhs),rhsMax =  -2.62179167265231E-13  5.23155569934223E-01
 cg2d: Sum(rhs),rhsMax =   2.91197621571371E-13  5.23081076497846E-01
 cg2d: Sum(rhs),rhsMax =   3.66748298397113E-13  5.23001413070271E-01
 cg2d: Sum(rhs),rhsMax =  -7.35522753814166E-16  5.22916679643596E-01
 cg2d: Sum(rhs),rhsMax =  -3.85663723179164E-14  5.22827108034710E-01
 cg2d: Sum(rhs),rhsMax =   3.81777942592976E-14  5.22733087651656E-01
 cg2d: Sum(rhs),rhsMax =   1.12729270362877E-13  5.22635083613795E-01
 cg2d: Sum(rhs),rhsMax =   4.39509539873484E-14  5.22533930011559E-01
 cg2d: Sum(rhs),rhsMax =   4.14265843851069E-13  5.22429425126904E-01
 cg2d: Sum(rhs),rhsMax =  -1.24622534514174E-14  5.22322685673550E-01
 cg2d: Sum(rhs),rhsMax =  -2.63608579409436E-13  5.22213764350487E-01
 cg2d: Sum(rhs),rhsMax =   5.17072495931359E-13  5.22104279384023E-01
 cg2d: Sum(rhs),rhsMax =   1.67962865837978E-13  5.21995293224655E-01
 cg2d: Sum(rhs),rhsMax =   7.31359417471822E-14  5.21887680593026E-01
 cg2d: Sum(rhs),rhsMax =   1.29396493520062E-13  5.21782356645012E-01
 cg2d: Sum(rhs),rhsMax =   2.30385155397528E-13  5.21680393333724E-01
 cg2d: Sum(rhs),rhsMax =   7.38437089253807E-14  5.21582382759887E-01
 cg2d: Sum(rhs),rhsMax =  -3.40810712984307E-13  5.21488966765188E-01
 cg2d: Sum(rhs),rhsMax =   1.16157083951407E-13  5.21400680559648E-01
 cg2d: Sum(rhs),rhsMax =   4.02594624304697E-14  5.21317943837766E-01
 cg2d: Sum(rhs),rhsMax =  -2.92016411052032E-13  5.21241037819631E-01
 cg2d: Sum(rhs),rhsMax =  -9.41746680638289E-14  5.21170102372578E-01
 cg2d: Sum(rhs),rhsMax =   5.77177194927003E-14  5.21105147938755E-01
 cg2d: Sum(rhs),rhsMax =   1.72570291390173E-13  5.21046029247230E-01
 cg2d: Sum(rhs),rhsMax =   5.98937566209656E-13  5.20992465609099E-01
 cg2d: Sum(rhs),rhsMax =   7.78543896018391E-15  5.20944190766911E-01
 cg2d: Sum(rhs),rhsMax =   4.56301663120939E-14  5.20900299244658E-01
 cg2d: Sum(rhs),rhsMax =  -2.28650431921551E-13  5.20860391016491E-01
 cg2d: Sum(rhs),rhsMax =  -3.12777581612522E-13  5.20823059460300E-01
 cg2d: Sum(rhs),rhsMax =  -5.55430701432158E-13  5.20787504542457E-01
 cg2d: Sum(rhs),rhsMax =   3.83068576859102E-13  5.20752817186284E-01
 cg2d: Sum(rhs),rhsMax =   6.93889390390723E-14  5.20718178771052E-01
 cg2d: Sum(rhs),rhsMax =  -8.38079605713915E-14  5.20682799231553E-01
 cg2d: Sum(rhs),rhsMax =   1.31783473023006E-13  5.20645769013771E-01
 cg2d: Sum(rhs),rhsMax =  -3.26405569239796E-13  5.20606185425209E-01
 cg2d: Sum(rhs),rhsMax =   5.28882493355809E-14  5.20563344598873E-01
 cg2d: Sum(rhs),rhsMax =   8.78047634600421E-14  5.20516540060546E-01
 cg2d: Sum(rhs),rhsMax =   7.71605002114484E-15  5.20465252311669E-01
 cg2d: Sum(rhs),rhsMax =   8.18789480661053E-15  5.20408985776644E-01
 cg2d: Sum(rhs),rhsMax =  -2.19116391697582E-13  5.20347452759608E-01
 cg2d: Sum(rhs),rhsMax =   3.06962788521048E-13  5.20280419682416E-01
 cg2d: Sum(rhs),rhsMax =   3.62765373296270E-14  5.20207879788861E-01
 cg2d: Sum(rhs),rhsMax =   2.05238603889768E-13  5.20129863078955E-01
 cg2d: Sum(rhs),rhsMax =  -2.17756368492417E-13  5.20046640273851E-01
 cg2d: Sum(rhs),rhsMax =   3.16510706532824E-13  5.19958511467458E-01
 cg2d: Sum(rhs),rhsMax =   1.52072798798031E-13  5.19865990808661E-01
 cg2d: Sum(rhs),rhsMax =   4.09325351391487E-13  5.19769617025028E-01
 cg2d: Sum(rhs),rhsMax =  -1.62703184258817E-13  5.19669741001267E-01
 cg2d: Sum(rhs),rhsMax =   3.96904731303493E-13  5.19567047390399E-01
 cg2d: Sum(rhs),rhsMax =   2.31675789663655E-13  5.19462432513768E-01
 cg2d: Sum(rhs),rhsMax =  -2.38156716569904E-13  5.19356717120855E-01
 cg2d: Sum(rhs),rhsMax =   3.75199871172072E-13  5.19250855238730E-01
 cg2d: Sum(rhs),rhsMax =  -6.36712904622527E-14  5.19145672933907E-01
 cg2d: Sum(rhs),rhsMax =  -1.69392277982183E-13  5.19042014762556E-01
 cg2d: Sum(rhs),rhsMax =   4.21065959876898E-13  5.18940965734896E-01
 cg2d: Sum(rhs),rhsMax =   4.34929869896905E-13  5.18842956405941E-01
 cg2d: Sum(rhs),rhsMax =   3.02702307664049E-13  5.18748832827618E-01
 cg2d: Sum(rhs),rhsMax =  -1.87017068498108E-13  5.18658970793220E-01
 cg2d: Sum(rhs),rhsMax =  -4.89233653588883E-13  5.18574014200347E-01
 cg2d: Sum(rhs),rhsMax =  -1.01890718084974E-13  5.18558313111918E-01
 cg2d: Sum(rhs),rhsMax =  -1.45106149318508E-13  5.18676772424306E-01
 cg2d: Sum(rhs),rhsMax =   3.04450908927834E-13  5.18795972409024E-01
 cg2d: Sum(rhs),rhsMax =   6.20337115009306E-15  5.18915783192494E-01
 cg2d: Sum(rhs),rhsMax =  -4.08909017757253E-13  5.19036017919450E-01
 cg2d: Sum(rhs),rhsMax =  -3.05241942832879E-13  5.19156477260560E-01
 cg2d: Sum(rhs),rhsMax =   6.17075834874470E-13  5.19276985979828E-01
 cg2d: Sum(rhs),rhsMax =  -1.29604660337179E-13  5.19397274945057E-01
 cg2d: Sum(rhs),rhsMax =   1.57679425072388E-13  5.19517056999059E-01
 cg2d: Sum(rhs),rhsMax =  -1.70377600916538E-13  5.19636041240279E-01
 cg2d: Sum(rhs),rhsMax =   2.08458250661181E-13  5.19753940475969E-01
 cg2d: Sum(rhs),rhsMax =   2.52270426770451E-13  5.19870471606214E-01
 cg2d: Sum(rhs),rhsMax =  -2.19130269485390E-13  5.19985368824883E-01
 cg2d: Sum(rhs),rhsMax =   3.04950509288915E-13  5.20098423702322E-01
 cg2d: Sum(rhs),rhsMax =   4.78173056706055E-13  5.20209396880484E-01
 cg2d: Sum(rhs),rhsMax =  -1.74485426107651E-13  5.20318105755480E-01
 cg2d: Sum(rhs),rhsMax =  -6.00547389595363E-13  5.20424213802931E-01
 cg2d: Sum(rhs),rhsMax =   1.48353551665537E-13  5.20528214746381E-01
 cg2d: Sum(rhs),rhsMax =  -5.07649478009853E-14  5.20629530456247E-01
 cg2d: Sum(rhs),rhsMax =   1.61828883626924E-13  5.20728302438965E-01
 cg2d: Sum(rhs),rhsMax =   6.00491878444132E-14  5.20824575262066E-01
 cg2d: Sum(rhs),rhsMax =   1.71501701728971E-13  5.20918481740152E-01
 cg2d: Sum(rhs),rhsMax =   2.66453525910038E-13  5.21010150745307E-01
 cg2d: Sum(rhs),rhsMax =   1.13312137450805E-13  5.21099809048009E-01
 cg2d: Sum(rhs),rhsMax =  -1.11355369369903E-13  5.21187577870755E-01
 cg2d: Sum(rhs),rhsMax =   3.62501695327921E-13  5.21273746317206E-01
 cg2d: Sum(rhs),rhsMax =  -1.84255388724353E-13  5.21358467253816E-01
 cg2d: Sum(rhs),rhsMax =   2.73017719543134E-13  5.21442075278435E-01
 cg2d: Sum(rhs),rhsMax =   4.91218177245401E-13  5.21524697745532E-01
 cg2d: Sum(rhs),rhsMax =   2.63178367987393E-13  5.21606326407493E-01
 cg2d: Sum(rhs),rhsMax =  -2.68812749837366E-13  5.21687459935996E-01
 cg2d: Sum(rhs),rhsMax =  -3.99402733108900E-14  5.21692018765900E-01
 cg2d: Sum(rhs),rhsMax =   4.54386528403461E-13  5.21634207281479E-01
 cg2d: Sum(rhs),rhsMax =   7.45112305189366E-13  5.21576479864275E-01
 cg2d: Sum(rhs),rhsMax =   2.36352604154888E-13  5.21519714076609E-01
 cg2d: Sum(rhs),rhsMax =  -5.97022431492178E-14  5.21463553142734E-01
 cg2d: Sum(rhs),rhsMax =   9.46465128492946E-15  5.21408332317695E-01
 cg2d: Sum(rhs),rhsMax =   9.81159598012482E-15  5.21354105344596E-01
 cg2d: Sum(rhs),rhsMax =   1.53557722093467E-13  5.21301503214696E-01
 cg2d: Sum(rhs),rhsMax =   7.03881397612349E-14  5.21249570228255E-01
 cg2d: Sum(rhs),rhsMax =  -1.71196390397199E-13  5.21201634591745E-01
 cg2d: Sum(rhs),rhsMax =   5.53584955653719E-14  5.21152346699434E-01
 cg2d: Sum(rhs),rhsMax =  -4.40480985020031E-14  5.21102882567387E-01
 cg2d: Sum(rhs),rhsMax =   3.48054918219987E-13  5.21052525608933E-01
 cg2d: Sum(rhs),rhsMax =   2.81413781166862E-13  5.21000988739290E-01
 cg2d: Sum(rhs),rhsMax =  -1.77344250396061E-13  5.20947867516354E-01
 cg2d: Sum(rhs),rhsMax =  -5.54695178678344E-14  5.20892786339391E-01
 cg2d: Sum(rhs),rhsMax =   2.35353403432725E-13  5.20835385415619E-01
 cg2d: Sum(rhs),rhsMax =   7.59531326721685E-14  5.20775306620562E-01
 cg2d: Sum(rhs),rhsMax =   1.22651888645464E-13  5.20712235711570E-01
 cg2d: Sum(rhs),rhsMax =   2.52381449072914E-13  5.20645877414672E-01
 cg2d: Sum(rhs),rhsMax =  -1.55625512476831E-13  5.20575990443330E-01
 cg2d: Sum(rhs),rhsMax =   1.12410081243297E-13  5.20502384721897E-01
 cg2d: Sum(rhs),rhsMax =  -3.16011106171743E-13  5.20424889904905E-01
 cg2d: Sum(rhs),rhsMax =   1.87155846376186E-13  5.20343394874264E-01
 cg2d: Sum(rhs),rhsMax =   2.40640840587503E-13  5.20257873013178E-01
 cg2d: Sum(rhs),rhsMax =  -1.87350135405495E-14  5.20167601093144E-01
 cg2d: Sum(rhs),rhsMax =  -5.00710584105946E-14  5.20073389146987E-01
 cg2d: Sum(rhs),rhsMax =  -2.17506568311876E-13  5.19975520685092E-01
 cg2d: Sum(rhs),rhsMax =   2.93584601074315E-13  5.19874207168398E-01
 cg2d: Sum(rhs),rhsMax =  -2.12163620005867E-13  5.19769651269821E-01
 cg2d: Sum(rhs),rhsMax =   1.94358418248441E-13  5.19662141371534E-01
 cg2d: Sum(rhs),rhsMax =  -1.78579373510956E-13  5.19551988930089E-01
 cg2d: Sum(rhs),rhsMax =  -2.51743070833754E-13  5.19439496639477E-01
 cg2d: Sum(rhs),rhsMax =  -2.69936850649799E-13  5.19324988341970E-01
 cg2d: Sum(rhs),rhsMax =  -1.88654647459430E-13  5.19208776958990E-01
 cg2d: Sum(rhs),rhsMax =   3.34787753075716E-13  5.19091192629504E-01
 cg2d: Sum(rhs),rhsMax =   1.10217390769662E-13  5.18972567571938E-01
 cg2d: Sum(rhs),rhsMax =   2.36061170610924E-14  5.18853199653010E-01
 cg2d: Sum(rhs),rhsMax =   4.00707245162835E-13  5.18733388512350E-01
 cg2d: Sum(rhs),rhsMax =   1.98618899105441E-13  5.18613386642174E-01
 cg2d: Sum(rhs),rhsMax =   1.76567094278823E-13  5.18493406865177E-01
 cg2d: Sum(rhs),rhsMax =  -4.70595784562988E-14  5.18373630381770E-01
 cg2d: Sum(rhs),rhsMax =   1.61218260963381E-13  5.18254183686837E-01
 cg2d: Sum(rhs),rhsMax =  -9.28701560098943E-14  5.18135155624602E-01
 cg2d: Sum(rhs),rhsMax =   4.37705427458468E-14  5.18016566898142E-01
 cg2d: Sum(rhs),rhsMax =  -2.64580024555983E-13  5.17898408347596E-01
 cg2d: Sum(rhs),rhsMax =  -3.42642580974939E-14  5.17780610068048E-01
 cg2d: Sum(rhs),rhsMax =   1.28758115280903E-13  5.17662902885564E-01
 cg2d: Sum(rhs),rhsMax =  -5.16531262206854E-14  5.17545168951154E-01
 cg2d: Sum(rhs),rhsMax =   3.51565998535364E-13  5.17427260789061E-01
 cg2d: Sum(rhs),rhsMax =   4.08395539608364E-13  5.17309095096573E-01
 cg2d: Sum(rhs),rhsMax =  -4.84473572370803E-14  5.17190352283119E-01
 cg2d: Sum(rhs),rhsMax =   9.51044798469525E-14  5.17070767473214E-01
 cg2d: Sum(rhs),rhsMax =  -1.71460068365548E-13  5.16950083170253E-01
 cg2d: Sum(rhs),rhsMax =  -2.03032035628326E-13  5.16828021028014E-01
 cg2d: Sum(rhs),rhsMax =  -6.89309720414144E-14  5.16704321652045E-01
 cg2d: Sum(rhs),rhsMax =   3.63833962957472E-13  5.16578731897695E-01
 cg2d: Sum(rhs),rhsMax =   3.14678838542193E-13  5.16451031331637E-01
 cg2d: Sum(rhs),rhsMax =  -1.74679715136961E-13  5.16321005282823E-01
 cg2d: Sum(rhs),rhsMax =   1.42774680966795E-13  5.16188497096950E-01
 cg2d: Sum(rhs),rhsMax =   6.10775319209722E-13  5.16053045199656E-01
 cg2d: Sum(rhs),rhsMax =   1.45161660469739E-14  5.15914908415988E-01
 cg2d: Sum(rhs),rhsMax =   6.47676356990701E-14  5.15774058835531E-01
 cg2d: Sum(rhs),rhsMax =   3.70800612436994E-13  5.15630508526501E-01
 cg2d: Sum(rhs),rhsMax =   4.49223991338954E-14  5.15484327558844E-01
 cg2d: Sum(rhs),rhsMax =  -4.55885329486705E-13  5.15335624470822E-01
 cg2d: Sum(rhs),rhsMax =  -2.39308572957952E-13  5.15184554755782E-01
 cg2d: Sum(rhs),rhsMax =   7.00967062172708E-14  5.15031310701514E-01
 cg2d: Sum(rhs),rhsMax =  -1.08246744900953E-15  5.14876124083642E-01
 cg2d: Sum(rhs),rhsMax =  -5.29826182926740E-13  5.14719285579241E-01
 cg2d: Sum(rhs),rhsMax =   4.85306239639272E-14  5.14561127689449E-01
 cg2d: Sum(rhs),rhsMax =   4.52610171564061E-13  5.14401947017868E-01
 cg2d: Sum(rhs),rhsMax =   5.97161209370256E-14  5.14242029945219E-01
 cg2d: Sum(rhs),rhsMax =  -6.11732886568461E-14  5.14081683544307E-01
 cg2d: Sum(rhs),rhsMax =   2.32452945780892E-13  5.13921204155110E-01
 cg2d: Sum(rhs),rhsMax =   3.53328477586956E-14  5.13762064149763E-01
 cg2d: Sum(rhs),rhsMax =   3.99680288865056E-13  5.13603385276214E-01
 cg2d: Sum(rhs),rhsMax =   4.75092187812720E-13  5.13445334223899E-01
 cg2d: Sum(rhs),rhsMax =   3.96904731303493E-15  5.13288091449568E-01
 cg2d: Sum(rhs),rhsMax =   2.07889261361061E-14  5.13131790876895E-01
 cg2d: Sum(rhs),rhsMax =  -3.09058334480028E-13  5.12976532627365E-01
 cg2d: Sum(rhs),rhsMax =   2.91558444054374E-13  5.12822433391020E-01
 cg2d: Sum(rhs),rhsMax =   1.67130198569510E-13  5.12669524326091E-01
 cg2d: Sum(rhs),rhsMax =   1.08704711898611E-13  5.12517788601553E-01
 cg2d: Sum(rhs),rhsMax =  -3.07115444186934E-13  5.12367169697284E-01
 cg2d: Sum(rhs),rhsMax =  -3.23768789556311E-13  5.12217569831299E-01
 cg2d: Sum(rhs),rhsMax =   2.50882647989670E-13  5.12068854384686E-01
 cg2d: Sum(rhs),rhsMax =   3.97307187149920E-13  5.11920916261657E-01
 cg2d: Sum(rhs),rhsMax =   3.08086889333481E-14  5.11773551819347E-01
 cg2d: Sum(rhs),rhsMax =  -1.21805343589187E-13  5.11626537611523E-01
 cg2d: Sum(rhs),rhsMax =   1.51059720288060E-13  5.11479642137844E-01
 cg2d: Sum(rhs),rhsMax =  -3.57297524899991E-13  5.11332570945869E-01
 cg2d: Sum(rhs),rhsMax =   2.34048891378791E-13  5.11185105608589E-01
 cg2d: Sum(rhs),rhsMax =   5.89930881922385E-13  5.11036968098229E-01
 cg2d: Sum(rhs),rhsMax =   2.74946732048420E-13  5.10887909684375E-01
 cg2d: Sum(rhs),rhsMax =   5.53737611319605E-13  5.10737695390852E-01
 cg2d: Sum(rhs),rhsMax =   1.77136083578944E-13  5.10586105210070E-01
 cg2d: Sum(rhs),rhsMax =   8.11989364635224E-14  5.10432976193465E-01
 cg2d: Sum(rhs),rhsMax =  -2.44346209932189E-13  5.10561373548086E-01
 cg2d: Sum(rhs),rhsMax =  -4.97837882029728E-13  5.11154775395505E-01
 cg2d: Sum(rhs),rhsMax =  -4.67195726550074E-13  5.11743925993034E-01
 cg2d: Sum(rhs),rhsMax =   1.27786670134356E-13  5.12328910029578E-01
 cg2d: Sum(rhs),rhsMax =  -8.79296635503124E-14  5.12909818265070E-01
 cg2d: Sum(rhs),rhsMax =  -3.28292948381659E-13  5.13486754837305E-01
 cg2d: Sum(rhs),rhsMax =   3.81500386836819E-14  5.14059536206301E-01
 cg2d: Sum(rhs),rhsMax =  -9.10382880192628E-14  5.14628551764536E-01
 cg2d: Sum(rhs),rhsMax =   5.65381075290361E-14  5.15193941970538E-01
 cg2d: Sum(rhs),rhsMax =   5.80105408154452E-13  5.15756230470254E-01
 cg2d: Sum(rhs),rhsMax =   2.78388423424758E-14  5.16315593208382E-01
 cg2d: Sum(rhs),rhsMax =  -3.82471831983366E-14  5.16872557919883E-01
 cg2d: Sum(rhs),rhsMax =   5.28438404145959E-13  5.17426540459962E-01
 cg2d: Sum(rhs),rhsMax =  -4.32154312335342E-14  5.17978279606754E-01
 cg2d: Sum(rhs),rhsMax =   1.41150979793281E-13  5.18528125150849E-01
 cg2d: Sum(rhs),rhsMax =   1.31838984174237E-14  5.19075789985782E-01
 cg2d: Sum(rhs),rhsMax =  -2.34035013590983E-13  5.19621286582500E-01
 cg2d: Sum(rhs),rhsMax =  -2.59361976340244E-13  5.20165022782355E-01
 cg2d: Sum(rhs),rhsMax =   5.57331958361829E-14  5.20707375300942E-01
 cg2d: Sum(rhs),rhsMax =   3.67622599029005E-13  5.21248693734531E-01
 cg2d: Sum(rhs),rhsMax =  -1.33087985076941E-14  5.21789320760998E-01
 cg2d: Sum(rhs),rhsMax =   2.46941356252250E-13  5.22329656130934E-01
 cg2d: Sum(rhs),rhsMax =  -9.08717545655691E-14  5.22870226152230E-01
 cg2d: Sum(rhs),rhsMax =   3.01952907122427E-13  5.23410934676277E-01
 cg2d: Sum(rhs),rhsMax =  -6.77097267143267E-14  5.23952092164749E-01
 cg2d: Sum(rhs),rhsMax =   5.87169202148630E-14  5.24493877160942E-01
 cg2d: Sum(rhs),rhsMax =   5.56721335698285E-13  5.25036141466191E-01
 cg2d: Sum(rhs),rhsMax =   1.91138771477029E-13  5.25578172359728E-01
 cg2d: Sum(rhs),rhsMax =   9.83657599817889E-14  5.26119861158922E-01
 cg2d: Sum(rhs),rhsMax =  -2.83773005094190E-13  5.26661106623399E-01
 cg2d: Sum(rhs),rhsMax =  -1.91166527052644E-13  5.27201750884075E-01
 cg2d: Sum(rhs),rhsMax =   2.77000644643977E-14  5.27742108503319E-01
 cg2d: Sum(rhs),rhsMax =  -2.22599716437344E-14  5.28281936676385E-01
 cg2d: Sum(rhs),rhsMax =   3.07698311274862E-13  5.28821011020378E-01
 cg2d: Sum(rhs),rhsMax =  -4.04898337080795E-13  5.29359087403929E-01
 cg2d: Sum(rhs),rhsMax =   5.84671200343223E-13  5.29895920900801E-01
 cg2d: Sum(rhs),rhsMax =   1.65700786425305E-13  5.30431351459114E-01
 cg2d: Sum(rhs),rhsMax =   2.95097279945367E-13  5.30965424237308E-01
 cg2d: Sum(rhs),rhsMax =   4.39925873507718E-13  5.31497929726123E-01
 cg2d: Sum(rhs),rhsMax =  -4.12544998162900E-13  5.32028665162378E-01
 cg2d: Sum(rhs),rhsMax =   2.32744379324856E-13  5.32557637851166E-01
 cg2d: Sum(rhs),rhsMax =   1.46896383945716E-13  5.33085092986148E-01
 cg2d: Sum(rhs),rhsMax =   4.75619543749417E-13  5.33610153869227E-01
 cg2d: Sum(rhs),rhsMax =   2.81510925681516E-13  5.34133110130982E-01
 cg2d: Sum(rhs),rhsMax =   1.76664238793478E-14  5.34653985460937E-01
 cg2d: Sum(rhs),rhsMax =  -9.25093335268912E-14  5.35172986283767E-01
 cg2d: Sum(rhs),rhsMax =   6.77430334050655E-13  5.35690038759247E-01
 cg2d: Sum(rhs),rhsMax =  -1.60482738209566E-13  5.36205242051646E-01
 cg2d: Sum(rhs),rhsMax =   2.26291207994223E-13  5.36718997839382E-01
 cg2d: Sum(rhs),rhsMax =  -4.52554660412829E-14  5.37231642042848E-01
 cg2d: Sum(rhs),rhsMax =  -3.07670555699247E-13  5.37743368718890E-01
 cg2d: Sum(rhs),rhsMax =   1.20736753927986E-13  5.38235195149940E-01
 cg2d: Sum(rhs),rhsMax =   1.44634304533042E-13  5.38725517585780E-01
 cg2d: Sum(rhs),rhsMax =   1.07358566481253E-13  5.39214543647214E-01
 cg2d: Sum(rhs),rhsMax =   2.06959449577937E-13  5.39702073801518E-01
 cg2d: Sum(rhs),rhsMax =  -1.17586496095612E-13  5.40188505574551E-01
 cg2d: Sum(rhs),rhsMax =   2.89906987305244E-13  5.40674210553699E-01
 cg2d: Sum(rhs),rhsMax =   4.88498130835069E-15  5.41159510897794E-01
 cg2d: Sum(rhs),rhsMax =   1.68504099562483E-13  5.41644433254359E-01
 cg2d: Sum(rhs),rhsMax =  -6.03239680430079E-13  5.42129790793845E-01
 cg2d: Sum(rhs),rhsMax =   6.74876821094017E-14  5.42618047641126E-01
 cg2d: Sum(rhs),rhsMax =  -9.24399445878521E-14  5.43107203342125E-01
 cg2d: Sum(rhs),rhsMax =  -1.67157954145125E-13  5.43596435970149E-01
 cg2d: Sum(rhs),rhsMax =  -1.69725344889571E-14  5.44085735169067E-01
 cg2d: Sum(rhs),rhsMax =   2.37448949391705E-13  5.44575462906001E-01
 cg2d: Sum(rhs),rhsMax =   3.64056007562397E-13  5.45064178151347E-01
 cg2d: Sum(rhs),rhsMax =   2.98788771502245E-13  5.45551546116337E-01
 cg2d: Sum(rhs),rhsMax =   2.31245578241612E-13  5.46037334991375E-01
 cg2d: Sum(rhs),rhsMax =   2.16673901043407E-13  5.46521561991535E-01
 cg2d: Sum(rhs),rhsMax =  -5.78426195829707E-13  5.47004208308563E-01
 cg2d: Sum(rhs),rhsMax =  -2.14578355084427E-13  5.47484898914121E-01
 cg2d: Sum(rhs),rhsMax =  -3.31498717365264E-13  5.47963587185629E-01
 cg2d: Sum(rhs),rhsMax =   5.78884162827364E-13  5.48439980967396E-01
 cg2d: Sum(rhs),rhsMax =   1.19723675418015E-13  5.48913852278828E-01
 cg2d: Sum(rhs),rhsMax =  -3.52343154652601E-13  5.49385007649590E-01
 cg2d: Sum(rhs),rhsMax =  -4.15140144482962E-13  5.49853497177683E-01
 cg2d: Sum(rhs),rhsMax =   3.89993592975202E-13  5.50318454519228E-01
 cg2d: Sum(rhs),rhsMax =   2.90462098817557E-14  5.50780783545148E-01
 cg2d: Sum(rhs),rhsMax =  -2.02296512874511E-13  5.51239771521641E-01
 cg2d: Sum(rhs),rhsMax =   1.41275879883551E-14  5.51695693592244E-01
 cg2d: Sum(rhs),rhsMax =   5.26717558457790E-13  5.52148500545827E-01
 cg2d: Sum(rhs),rhsMax =  -3.43197692487252E-13  5.52598271575413E-01
 cg2d: Sum(rhs),rhsMax =   2.43680076117414E-13  5.53049031056450E-01
 cg2d: Sum(rhs),rhsMax =   1.13464793116691E-13  5.53497087542804E-01
 cg2d: Sum(rhs),rhsMax =   2.79762324417732E-13  5.53942421577856E-01
 cg2d: Sum(rhs),rhsMax =  -1.65659153061881E-13  5.54385277544439E-01
 cg2d: Sum(rhs),rhsMax =  -3.23130411317152E-13  5.54825897625648E-01
 cg2d: Sum(rhs),rhsMax =  -1.46868628370100E-13  5.55264500648965E-01
 cg2d: Sum(rhs),rhsMax =   1.58623114643319E-13  5.55701702955081E-01
 cg2d: Sum(rhs),rhsMax =   6.43235464892200E-14  5.56137816933627E-01
 cg2d: Sum(rhs),rhsMax =   1.25496835146066E-13  5.56573115158413E-01
 cg2d: Sum(rhs),rhsMax =   1.63369318073592E-13  5.57007464004227E-01
 cg2d: Sum(rhs),rhsMax =   2.26249574630799E-13  5.57440542167808E-01
 cg2d: Sum(rhs),rhsMax =  -1.70627401097079E-13  5.57872665185185E-01
 cg2d: Sum(rhs),rhsMax =   4.46184755809043E-13  5.58304179801545E-01
 cg2d: Sum(rhs),rhsMax =  -1.58123514282238E-13  5.58735263857542E-01
 cg2d: Sum(rhs),rhsMax =   2.73531197692023E-14  5.59166321267928E-01
 cg2d: Sum(rhs),rhsMax =  -7.88535903240017E-14  5.59597723640571E-01
 cg2d: Sum(rhs),rhsMax =   3.35703687071032E-14  5.60029474472018E-01
 cg2d: Sum(rhs),rhsMax =  -1.05776498671162E-13  5.60461668483347E-01
 cg2d: Sum(rhs),rhsMax =  -5.77524139622199E-13  5.60894449978150E-01
 cg2d: Sum(rhs),rhsMax =   2.44387843295613E-14  5.61327881937022E-01
 cg2d: Sum(rhs),rhsMax =  -5.24413845681693E-13  5.61762013194750E-01
 cg2d: Sum(rhs),rhsMax =  -9.85322934354826E-15  5.62196441256648E-01
 cg2d: Sum(rhs),rhsMax =   1.52808321551845E-13  5.62630330304408E-01
 cg2d: Sum(rhs),rhsMax =  -8.21287482466460E-14  5.63063632043898E-01
 cg2d: Sum(rhs),rhsMax =  -8.88733531212438E-14  5.63497149940029E-01
 cg2d: Sum(rhs),rhsMax =   2.52659004829070E-13  5.63929541548173E-01
 cg2d: Sum(rhs),rhsMax =   1.44606548957427E-13  5.64360952931133E-01
 cg2d: Sum(rhs),rhsMax =   1.84574577843932E-14  5.64791061787869E-01
 cg2d: Sum(rhs),rhsMax =   9.77273817426294E-14  5.65219727690889E-01
 cg2d: Sum(rhs),rhsMax =  -1.13326015238613E-13  5.65646829043101E-01
 cg2d: Sum(rhs),rhsMax =  -3.49373308061729E-13  5.66072101472177E-01
 cg2d: Sum(rhs),rhsMax =  -2.85105272723740E-13  5.66495396225399E-01
 cg2d: Sum(rhs),rhsMax =  -4.34513536262671E-14  5.66916475078897E-01
 cg2d: Sum(rhs),rhsMax =   5.52752288385250E-14  5.67335176786284E-01
 cg2d: Sum(rhs),rhsMax =   3.27113336417995E-13  5.67751003387788E-01
 cg2d: Sum(rhs),rhsMax =   2.28428387316626E-14  5.68165013696276E-01
 cg2d: Sum(rhs),rhsMax =   7.18911041808212E-13  5.68576326101168E-01
 cg2d: Sum(rhs),rhsMax =  -6.28663787693995E-15  5.68984240751035E-01
 cg2d: Sum(rhs),rhsMax =   4.08645339788904E-13  5.69389937182155E-01
 cg2d: Sum(rhs),rhsMax =   5.23192600354605E-14  5.69792872991355E-01
 cg2d: Sum(rhs),rhsMax =   2.46552778193632E-13  5.70192893486328E-01
 cg2d: Sum(rhs),rhsMax =   2.61873855933459E-14  5.70590348779827E-01
 cg2d: Sum(rhs),rhsMax =   3.62626595418192E-14  5.70985241779340E-01
 cg2d: Sum(rhs),rhsMax =   5.50254286579843E-14  5.71377839906380E-01
 cg2d: Sum(rhs),rhsMax =  -1.54265489271666E-13  5.71768320919601E-01
 cg2d: Sum(rhs),rhsMax =  -3.31831784272651E-13  5.72157010817211E-01
 cg2d: Sum(rhs),rhsMax =  -1.30409572030032E-13  5.72544517802003E-01
 cg2d: Sum(rhs),rhsMax =  -9.81159598012482E-14  5.72931100608218E-01
 cg2d: Sum(rhs),rhsMax =   7.94919685631612E-14  5.73296056453635E-01
 cg2d: Sum(rhs),rhsMax =  -1.59164348367824E-13  5.73661474228919E-01
 cg2d: Sum(rhs),rhsMax =  -2.04142258652951E-14  5.74031140376835E-01
 cg2d: Sum(rhs),rhsMax =   1.82145964977565E-13  5.74400097084422E-01
 cg2d: Sum(rhs),rhsMax =  -5.64825963778048E-14  5.74768354363379E-01
 cg2d: Sum(rhs),rhsMax =   1.51073598075868E-13  5.75135672161856E-01
 cg2d: Sum(rhs),rhsMax =   2.55892529388291E-13  5.75502175894524E-01
 cg2d: Sum(rhs),rhsMax =   3.96460642093643E-13  5.75867996114267E-01
 cg2d: Sum(rhs),rhsMax =  -8.64447402548763E-14  5.76233215442328E-01
 cg2d: Sum(rhs),rhsMax =  -4.05800393288303E-13  5.76597868552186E-01
 cg2d: Sum(rhs),rhsMax =   2.91613955205605E-13  5.76961947846010E-01
 cg2d: Sum(rhs),rhsMax =  -1.04471986617227E-13  5.77325468417244E-01
 cg2d: Sum(rhs),rhsMax =  -1.56180623989144E-13  5.77687533669470E-01
 cg2d: Sum(rhs),rhsMax =  -2.62817545504390E-13  5.78047972980185E-01
 cg2d: Sum(rhs),rhsMax =  -1.51198498166139E-13  5.78406751380827E-01
 cg2d: Sum(rhs),rhsMax =  -9.05941988094128E-14  5.78763642083149E-01
 cg2d: Sum(rhs),rhsMax =  -2.04822270255534E-13  5.79118407214351E-01
 cg2d: Sum(rhs),rhsMax =  -3.03243541388554E-13  5.79470818291251E-01
 cg2d: Sum(rhs),rhsMax =   1.54182222544819E-13  5.79820900085306E-01
 cg2d: Sum(rhs),rhsMax =   3.35662053707608E-13  5.80167758953411E-01
 cg2d: Sum(rhs),rhsMax =   2.27415308806656E-13  5.80511704959880E-01
 cg2d: Sum(rhs),rhsMax =  -1.78412840057263E-13  5.80852246934840E-01
 cg2d: Sum(rhs),rhsMax =   2.44582132324922E-13  5.81189374095682E-01
 cg2d: Sum(rhs),rhsMax =   1.16517906434410E-13  5.81522774369110E-01
 cg2d: Sum(rhs),rhsMax =   2.91211499359179E-13  5.81852403795574E-01
 cg2d: Sum(rhs),rhsMax =  -2.41265341038854E-13  5.82043577456835E-01
 cg2d: Sum(rhs),rhsMax =  -4.05231403988182E-15  5.82228191488396E-01
 cg2d: Sum(rhs),rhsMax =   1.47187817489680E-13  5.82410136163181E-01
 cg2d: Sum(rhs),rhsMax =   2.54213317063545E-13  5.82587439190840E-01
 cg2d: Sum(rhs),rhsMax =  -2.55018228756398E-13  5.82760859230018E-01
 cg2d: Sum(rhs),rhsMax =  -3.52592954833142E-13  5.82930199405074E-01
 cg2d: Sum(rhs),rhsMax =  -1.54112833605780E-13  5.83095948345994E-01
 cg2d: Sum(rhs),rhsMax =  -1.07067132937289E-13  5.83258209813089E-01
 cg2d: Sum(rhs),rhsMax =  -1.25038868148408E-13  5.83417202707066E-01
 cg2d: Sum(rhs),rhsMax =   3.59365315283355E-13  5.83573198324168E-01
 cg2d: Sum(rhs),rhsMax =  -2.83287282520917E-13  5.83726594889780E-01
 cg2d: Sum(rhs),rhsMax =   3.21229154387481E-13  5.83877656542905E-01
 cg2d: Sum(rhs),rhsMax =   3.13846171273724E-13  5.84026988100732E-01
 cg2d: Sum(rhs),rhsMax =   5.51447776331315E-13  5.84174547251134E-01
 cg2d: Sum(rhs),rhsMax =   2.85674262023861E-13  5.84319993601748E-01
 cg2d: Sum(rhs),rhsMax =   4.60173565919320E-13  5.84463730994513E-01
 cg2d: Sum(rhs),rhsMax =  -1.73583369900143E-13  5.84606004921105E-01
 cg2d: Sum(rhs),rhsMax =   2.80012124598272E-13  5.84747049859526E-01
 cg2d: Sum(rhs),rhsMax =  -4.56246151969708E-13  5.84887147373144E-01
 cg2d: Sum(rhs),rhsMax =   5.59691182289157E-14  5.85027148920354E-01
 cg2d: Sum(rhs),rhsMax =  -1.28813626432134E-13  5.85166629407096E-01
 cg2d: Sum(rhs),rhsMax =  -6.72795152922845E-14  5.85305661410852E-01
 cg2d: Sum(rhs),rhsMax =  -1.54362633786320E-13  5.85444364126343E-01
 cg2d: Sum(rhs),rhsMax =  -1.48492329543615E-15  5.85582771065552E-01
 cg2d: Sum(rhs),rhsMax =  -3.13832293485916E-13  5.85720921173111E-01
 cg2d: Sum(rhs),rhsMax =   2.89740453851550E-13  5.85858665360446E-01
 cg2d: Sum(rhs),rhsMax =   2.58390531193697E-13  5.85995293736566E-01
 cg2d: Sum(rhs),rhsMax =  -4.72510919280467E-13  5.86130663816313E-01
 cg2d: Sum(rhs),rhsMax =   4.20358192698700E-13  5.86205227546416E-01
 cg2d: Sum(rhs),rhsMax =   1.51267887105178E-13  5.86162136175885E-01
 cg2d: Sum(rhs),rhsMax =   1.00419672577345E-13  5.86115951770081E-01
 cg2d: Sum(rhs),rhsMax =  -1.54931623086441E-13  5.86068714506648E-01
 cg2d: Sum(rhs),rhsMax =   1.97758476261356E-14  5.86019002592931E-01
 cg2d: Sum(rhs),rhsMax =   2.39114283928643E-14  5.85966962024262E-01
 cg2d: Sum(rhs),rhsMax =   1.13256626299574E-13  5.85912326639845E-01
 cg2d: Sum(rhs),rhsMax =  -2.96207502969992E-13  5.85855069508313E-01
(PID.TID 0000.0001) // =======================================================
(PID.TID 0000.0001) // Begin MONITOR dynamic field statistics
(PID.TID 0000.0001) // =======================================================
(PID.TID 0000.0001) %MON time_tsnumber                =                 17280
(PID.TID 0000.0001) %MON time_secondsf                =   2.0736000000000E+07
(PID.TID 0000.0001) %MON dynstat_eta_max              =   2.0845338820602E-01
(PID.TID 0000.0001) %MON dynstat_eta_min              =  -2.5942008826340E-01
(PID.TID 0000.0001) %MON dynstat_eta_mean             =   1.0781786123356E-16
(PID.TID 0000.0001) %MON dynstat_eta_sd               =   1.2742213916516E-01
(PID.TID 0000.0001) %MON dynstat_eta_del2             =   3.3490968520581E-04
(PID.TID 0000.0001) %MON dynstat_uvel_max             =   2.8155978153639E-01
(PID.TID 0000.0001) %MON dynstat_uvel_min             =  -4.2548798541957E-01
(PID.TID 0000.0001) %MON dynstat_uvel_mean            =   4.7251360251814E-05
(PID.TID 0000.0001) %MON dynstat_uvel_sd              =   1.1228950840383E-02
(PID.TID 0000.0001) %MON dynstat_uvel_del2            =   3.2303185887241E-04
(PID.TID 0000.0001) %MON dynstat_vvel_max             =   3.8248754575476E-01
(PID.TID 0000.0001) %MON dynstat_vvel_min             =  -2.3381546789164E-01
(PID.TID 0000.0001) %MON dynstat_vvel_mean            =   4.7629798597417E-07
(PID.TID 0000.0001) %MON dynstat_vvel_sd              =   1.1910716585120E-02
(PID.TID 0000.0001) %MON dynstat_vvel_del2            =   2.1051016481656E-04
(PID.TID 0000.0001) %MON dynstat_wvel_max             =   1.9229650843756E-04
(PID.TID 0000.0001) %MON dynstat_wvel_min             =  -2.5161102585108E-04
(PID.TID 0000.0001) %MON dynstat_wvel_mean            =   5.5723942631922E-23
(PID.TID 0000.0001) %MON dynstat_wvel_sd              =   1.0471243433910E-05
(PID.TID 0000.0001) %MON dynstat_wvel_del2            =   3.2994543745798E-07
(PID.TID 0000.0001) %MON dynstat_theta_max            =   2.6952482699879E+01
(PID.TID 0000.0001) %MON dynstat_theta_min            =   9.9159859860065E-01
(PID.TID 0000.0001) %MON dynstat_theta_mean           =   3.9995652819458E+00
(PID.TID 0000.0001) %MON dynstat_theta_sd             =   4.4140349647270E+00
(PID.TID 0000.0001) %MON dynstat_theta_del2           =   2.1173356272110E-03
(PID.TID 0000.0001) %MON dynstat_salt_max             =   3.4500000000009E+01
(PID.TID 0000.0001) %MON dynstat_salt_min             =   3.4499999999977E+01
(PID.TID 0000.0001) %MON dynstat_salt_mean            =   3.4499999999998E+01
(PID.TID 0000.0001) %MON dynstat_salt_sd              =   2.8969637238849E-12
(PID.TID 0000.0001) %MON dynstat_salt_del2            =   1.7072310375801E-14
(PID.TID 0000.0001) %MON trAdv_CFL_u_max              =   1.0700369463401E-02
(PID.TID 0000.0001) %MON trAdv_CFL_v_max              =   4.1183037715927E-03
(PID.TID 0000.0001) %MON trAdv_CFL_w_max              =   1.8889567562803E-02
(PID.TID 0000.0001) %MON advcfl_uvel_max              =   1.0700233650629E-02
(PID.TID 0000.0001) %MON advcfl_vvel_max              =   4.1283997654125E-03
(PID.TID 0000.0001) %MON advcfl_wvel_max              =   1.7718877771952E-02
(PID.TID 0000.0001) %MON advcfl_W_hf_max              =   1.8889567562803E-02
(PID.TID 0000.0001) %MON pe_b_mean                    =   2.5655203928931E-05
(PID.TID 0000.0001) %MON ke_max                       =   1.0277631123923E-01
(PID.TID 0000.0001) %MON ke_mean                      =   1.3108723030476E-04
(PID.TID 0000.0001) %MON ke_vol                       =   7.5744557036543E+16
(PID.TID 0000.0001) %MON vort_r_min                   =  -8.9700076953680E-06
(PID.TID 0000.0001) %MON vort_r_max                   =   7.3868512618661E-06
(PID.TID 0000.0001) %MON vort_a_mean                  =   9.3555569952477E-05
(PID.TID 0000.0001) %MON vort_a_sd                    =   2.5195152309524E-05
(PID.TID 0000.0001) %MON vort_p_mean                  =   9.7478626213492E-05
(PID.TID 0000.0001) %MON vort_p_sd                    =   3.9500029113842E-05
(PID.TID 0000.0001) %MON surfExpan_theta_mean         =  -3.4040023883725E-09
(PID.TID 0000.0001) %MON surfExpan_salt_mean          =   1.7837777064323E-21
(PID.TID 0000.0001) // =======================================================
(PID.TID 0000.0001) // End MONITOR dynamic field statistics
(PID.TID 0000.0001) // =======================================================
(PID.TID 0000.0001) %CHECKPOINT     17280 ckptB
 cg2d: Sum(rhs),rhsMax =  -3.90520948911899E-13  5.85794841784062E-01
 cg2d: Sum(rhs),rhsMax =   1.98452365651747E-13  5.85732460547199E-01
 cg2d: Sum(rhs),rhsMax =   2.49647524874774E-13  5.85667377548444E-01
 cg2d: Sum(rhs),rhsMax =  -1.93525750979973E-13  5.85598923178912E-01
 cg2d: Sum(rhs),rhsMax =  -4.53942439193611E-14  5.85528353189096E-01
 cg2d: Sum(rhs),rhsMax =   4.04745681414909E-13  5.85455101343706E-01
 cg2d: Sum(rhs),rhsMax =  -5.28049826087340E-14  5.85379294393656E-01
 cg2d: Sum(rhs),rhsMax =  -2.08194572692832E-13  5.85301000454973E-01
 cg2d: Sum(rhs),rhsMax =   1.66838765025545E-13  5.85222693459982E-01
 cg2d: Sum(rhs),rhsMax =  -7.65359997600967E-14  5.85140522177981E-01
 cg2d: Sum(rhs),rhsMax =  -1.83922321816965E-13  5.85056137769678E-01
 cg2d: Sum(rhs),rhsMax =   1.97730720685740E-13  5.84969594742427E-01
 cg2d: Sum(rhs),rhsMax =   3.69829167290447E-13  5.84880998785587E-01
 cg2d: Sum(rhs),rhsMax =  -3.47277762102749E-13  5.84790880602751E-01
 cg2d: Sum(rhs),rhsMax =  -1.23304144672431E-13  5.84599047388254E-01
 cg2d: Sum(rhs),rhsMax =   3.10765302380389E-13  5.84405858742022E-01
 cg2d: Sum(rhs),rhsMax =  -6.90961177163274E-13  5.84213927443946E-01
 cg2d: Sum(rhs),rhsMax =  -2.71310751642773E-14  5.84022836895023E-01
 cg2d: Sum(rhs),rhsMax =   2.12288520096138E-13  5.83833646008726E-01
 cg2d: Sum(rhs),rhsMax =   2.12996287274336E-13  5.83646839129259E-01
 cg2d: Sum(rhs),rhsMax =   1.08121844810682E-13  5.83463012354163E-01
 cg2d: Sum(rhs),rhsMax =  -2.92738056018038E-13  5.83282516052470E-01
 cg2d: Sum(rhs),rhsMax =  -7.24836857202149E-14  5.83105641173262E-01
 cg2d: Sum(rhs),rhsMax =  -5.12506703742588E-14  5.82932506833087E-01
 cg2d: Sum(rhs),rhsMax =  -8.71247518574592E-14  5.82763103184019E-01
 cg2d: Sum(rhs),rhsMax =  -1.84713355722010E-14  5.82597241107668E-01
 cg2d: Sum(rhs),rhsMax =   1.76497705339784E-13  5.82432832122410E-01
 cg2d: Sum(rhs),rhsMax =   1.88737914186277E-14  5.82272326697713E-01
 cg2d: Sum(rhs),rhsMax =  -7.25253190836384E-14  5.82112591115973E-01
 cg2d: Sum(rhs),rhsMax =   3.02396996332277E-14  5.81953950640428E-01
 cg2d: Sum(rhs),rhsMax =   3.34940408741602E-13  5.81795835125403E-01
 cg2d: Sum(rhs),rhsMax =   1.52114432161454E-13  5.81637564251846E-01
 cg2d: Sum(rhs),rhsMax =  -4.42507142039972E-13  5.81478665037388E-01
 cg2d: Sum(rhs),rhsMax =   1.29299349005407E-13  5.81318567912972E-01
 cg2d: Sum(rhs),rhsMax =  -2.02574068630668E-13  5.81157697683508E-01
 cg2d: Sum(rhs),rhsMax =  -3.67011976365461E-13  5.80995138445477E-01
 cg2d: Sum(rhs),rhsMax =  -3.75532938079459E-13  5.80830521278029E-01
 cg2d: Sum(rhs),rhsMax =  -3.45140582780346E-14  5.80663549412565E-01
 cg2d: Sum(rhs),rhsMax =   9.17876885608848E-14  5.80493996339961E-01
 cg2d: Sum(rhs),rhsMax =   5.23206478142413E-13  5.80321706093038E-01
 cg2d: Sum(rhs),rhsMax =  -1.57540647194310E-13  5.80146602822395E-01
 cg2d: Sum(rhs),rhsMax =  -4.28407309627232E-14  5.79968690561825E-01
 cg2d: Sum(rhs),rhsMax =  -2.22599716437344E-13  5.79788047245388E-01
 cg2d: Sum(rhs),rhsMax =   4.04953848232026E-14  5.79604825194826E-01
 cg2d: Sum(rhs),rhsMax =   2.30135355216987E-13  5.79419276390903E-01
 cg2d: Sum(rhs),rhsMax =   2.94611557372093E-13  5.79231678868301E-01
 cg2d: Sum(rhs),rhsMax =   2.95319324550292E-14  5.79042349616502E-01
 cg2d: Sum(rhs),rhsMax =   5.43662337371131E-13  5.78851643711477E-01
 cg2d: Sum(rhs),rhsMax =   5.05151476204446E-15  5.78660497222505E-01
 cg2d: Sum(rhs),rhsMax =   1.75776060373778E-13  5.78469386985746E-01
 cg2d: Sum(rhs),rhsMax =   2.48939757696576E-13  5.78278794634037E-01
 cg2d: Sum(rhs),rhsMax =   3.00870439673417E-14  5.78089195942954E-01
 cg2d: Sum(rhs),rhsMax =   5.42760281163623E-14  5.77901083230634E-01
 cg2d: Sum(rhs),rhsMax =   5.49699175067531E-14  5.77715081218671E-01
 cg2d: Sum(rhs),rhsMax =   1.09232067835308E-13  5.77530831752485E-01
 cg2d: Sum(rhs),rhsMax =  -1.68143277079480E-13  5.77348734876724E-01
 cg2d: Sum(rhs),rhsMax =  -3.96072064035025E-14  5.77169169296269E-01
 cg2d: Sum(rhs),rhsMax =   9.28146448586631E-14  5.76992442297429E-01
 cg2d: Sum(rhs),rhsMax =   7.31498195349900E-14  5.76818745209416E-01
 cg2d: Sum(rhs),rhsMax =   2.02365901813550E-13  5.76634085061266E-01
 cg2d: Sum(rhs),rhsMax =  -3.37951888695898E-13  5.76456664655011E-01
 cg2d: Sum(rhs),rhsMax =   5.88390447475717E-13  5.76281553351341E-01
 cg2d: Sum(rhs),rhsMax =   5.65936186802674E-14  5.76109084381411E-01
 cg2d: Sum(rhs),rhsMax =   2.15619189170013E-13  5.75939041478423E-01
 cg2d: Sum(rhs),rhsMax =   9.37999677930179E-14  5.75771202777696E-01
 cg2d: Sum(rhs),rhsMax =  -1.72167835543746E-13  5.75604584717622E-01
 cg2d: Sum(rhs),rhsMax =  -1.70155556311613E-13  5.75439940335249E-01
 cg2d: Sum(rhs),rhsMax =   1.89431803576667E-14  5.75275654735937E-01
 cg2d: Sum(rhs),rhsMax =   1.51406664983256E-14  5.75111444104770E-01
 cg2d: Sum(rhs),rhsMax =  -1.75484626829814E-13  5.74946940380783E-01
 cg2d: Sum(rhs),rhsMax =   8.92619311798626E-14  5.74781613653677E-01
 cg2d: Sum(rhs),rhsMax =  -4.67181848762266E-13  5.74615074732637E-01
 cg2d: Sum(rhs),rhsMax =   5.96744875736022E-13  5.74446909200096E-01
 cg2d: Sum(rhs),rhsMax =   2.40849007404620E-13  5.74276743613789E-01
 cg2d: Sum(rhs),rhsMax =  -4.99322805325164E-14  5.74104215861505E-01
 cg2d: Sum(rhs),rhsMax =   1.82104331614141E-13  5.73929060463822E-01
 cg2d: Sum(rhs),rhsMax =  -3.59615115463896E-13  5.73751072908693E-01
 cg2d: Sum(rhs),rhsMax =   3.71383479524923E-13  5.73570039508280E-01
 cg2d: Sum(rhs),rhsMax =   2.05446770706885E-13  5.73385855964891E-01
 cg2d: Sum(rhs),rhsMax =   6.90697499194926E-14  5.73198514847303E-01
 cg2d: Sum(rhs),rhsMax =   1.03902997317107E-13  5.73008073495546E-01
 cg2d: Sum(rhs),rhsMax =  -3.96863097940070E-13  5.72814699274575E-01
 cg2d: Sum(rhs),rhsMax =   1.31339383813156E-13  5.72618608715604E-01
 cg2d: Sum(rhs),rhsMax =  -1.85101933780629E-13  5.72420056083090E-01
 cg2d: Sum(rhs),rhsMax =   8.95811202994423E-14  5.72219408141732E-01
 cg2d: Sum(rhs),rhsMax =   1.88113413734925E-13  5.72017031631436E-01
 cg2d: Sum(rhs),rhsMax =  -2.52339815709490E-13  5.71813361964731E-01
 cg2d: Sum(rhs),rhsMax =  -6.51007026064576E-14  5.71608869236939E-01
 cg2d: Sum(rhs),rhsMax =  -1.27606258892854E-13  5.71404055520395E-01
 cg2d: Sum(rhs),rhsMax =  -7.00550728538474E-13  5.71199430939594E-01
 cg2d: Sum(rhs),rhsMax =   1.61023971934071E-13  5.70995631231525E-01
 cg2d: Sum(rhs),rhsMax =   2.07611705604904E-13  5.70770281429352E-01
 cg2d: Sum(rhs),rhsMax =  -2.89213097914853E-13  5.70538366957684E-01
 cg2d: Sum(rhs),rhsMax =   2.29150032282632E-13  5.70308609922588E-01
 cg2d: Sum(rhs),rhsMax =  -6.24500451351651E-15  5.70081580328399E-01
 cg2d: Sum(rhs),rhsMax =   1.86267667956486E-13  5.69857737357753E-01
 cg2d: Sum(rhs),rhsMax =   1.50601753290402E-13  5.69637523840531E-01
 cg2d: Sum(rhs),rhsMax =  -6.28191942908529E-13  5.69421313166008E-01
 cg2d: Sum(rhs),rhsMax =   2.95263813399060E-13  5.69209389578899E-01
 cg2d: Sum(rhs),rhsMax =  -3.00037772404949E-14  5.69001741256800E-01
 cg2d: Sum(rhs),rhsMax =  -3.10210190868077E-13  5.68798685508396E-01
 cg2d: Sum(rhs),rhsMax =  -4.62269111878300E-14  5.68600213679346E-01
 cg2d: Sum(rhs),rhsMax =   1.64132596403022E-13  5.68406224792102E-01
 cg2d: Sum(rhs),rhsMax =  -2.42098008307323E-13  5.68216537041074E-01
 cg2d: Sum(rhs),rhsMax =   1.51448298346679E-13  5.68030871113047E-01
 cg2d: Sum(rhs),rhsMax =   1.23914767335975E-13  5.67848804528740E-01
 cg2d: Sum(rhs),rhsMax =  -7.17065296029773E-14  5.67669412163728E-01
 cg2d: Sum(rhs),rhsMax =  -1.10883524584438E-13  5.67492194311754E-01
 cg2d: Sum(rhs),rhsMax =  -3.50608431176624E-13  5.67316641426730E-01
 cg2d: Sum(rhs),rhsMax =   1.80550019379666E-13  5.67142719182063E-01
 cg2d: Sum(rhs),rhsMax =   5.42899059041702E-14  5.66969393084794E-01
 cg2d: Sum(rhs),rhsMax =  -1.25580101872913E-13  5.66796116498661E-01
 cg2d: Sum(rhs),rhsMax =   1.51989532071184E-13  5.66622374434438E-01
 cg2d: Sum(rhs),rhsMax =   4.80768203026116E-13  5.66447705968640E-01
 cg2d: Sum(rhs),rhsMax =  -4.34735580867596E-13  5.66271785197306E-01
 cg2d: Sum(rhs),rhsMax =   4.05231403988182E-15  5.66094176652527E-01
 cg2d: Sum(rhs),rhsMax =   2.49231191240540E-13  5.65914658140002E-01
 cg2d: Sum(rhs),rhsMax =   1.12451714606721E-13  5.65733032073809E-01
 cg2d: Sum(rhs),rhsMax =  -1.38208888778024E-13  5.65574703607176E-01
 cg2d: Sum(rhs),rhsMax =   1.55361834508483E-13  5.65414525167483E-01
 cg2d: Sum(rhs),rhsMax =   7.87286902337314E-14  5.65251567243209E-01
 cg2d: Sum(rhs),rhsMax =   1.79953274503930E-13  5.65086108761926E-01
 cg2d: Sum(rhs),rhsMax =  -8.31140711810008E-14  5.64918240585576E-01
 cg2d: Sum(rhs),rhsMax =   9.13158437754191E-15  5.64748114311670E-01
 cg2d: Sum(rhs),rhsMax =  -3.81222831080663E-14  5.64576021241423E-01
 cg2d: Sum(rhs),rhsMax =   9.92261828258734E-14  5.64402237532440E-01
 cg2d: Sum(rhs),rhsMax =  -1.04083408558608E-15  5.64227177358157E-01
 cg2d: Sum(rhs),rhsMax =   1.75262582224889E-13  5.64051416094620E-01
 cg2d: Sum(rhs),rhsMax =  -1.03334008016986E-13  5.63874752574323E-01
 cg2d: Sum(rhs),rhsMax =  -3.04561931230296E-13  5.63697489518307E-01
 cg2d: Sum(rhs),rhsMax =   1.77649561727833E-13  5.63519985021453E-01
 cg2d: Sum(rhs),rhsMax =   1.20278786930328E-13  5.63342928138008E-01
 cg2d: Sum(rhs),rhsMax =  -2.13010165062144E-13  5.63166849586131E-01
 cg2d: Sum(rhs),rhsMax =  -7.14983627858601E-14  5.62992285418097E-01
 cg2d: Sum(rhs),rhsMax =   5.48033840530593E-14  5.62819690492470E-01
 cg2d: Sum(rhs),rhsMax =   5.40650857416836E-13  5.62649404716692E-01
 cg2d: Sum(rhs),rhsMax =  -7.55367990379341E-14  5.62481871621694E-01
 cg2d: Sum(rhs),rhsMax =   5.49699175067531E-14  5.62317241794018E-01
 cg2d: Sum(rhs),rhsMax =  -6.88615831023753E-14  5.62155888077541E-01
 cg2d: Sum(rhs),rhsMax =   4.08145739427823E-13  5.61997770110400E-01
 cg2d: Sum(rhs),rhsMax =  -3.63736818442817E-13  5.61843084415505E-01
 cg2d: Sum(rhs),rhsMax =   1.29243837854176E-13  5.61691561296917E-01
 cg2d: Sum(rhs),rhsMax =   2.83661982791727E-14  5.61543257998905E-01
 cg2d: Sum(rhs),rhsMax =   5.23955878684035E-13  5.61397780020073E-01
 cg2d: Sum(rhs),rhsMax =  -1.98327465561476E-13  5.61254980725533E-01
 cg2d: Sum(rhs),rhsMax =  -1.61107238660918E-13  5.61113818104418E-01
 cg2d: Sum(rhs),rhsMax =   5.80646641878957E-14  5.60974065722488E-01
 cg2d: Sum(rhs),rhsMax =  -2.15105711021124E-15  5.60835213047596E-01
 cg2d: Sum(rhs),rhsMax =   4.67029193096380E-13  5.60697017343215E-01
 cg2d: Sum(rhs),rhsMax =  -9.53126466640697E-14  5.60558918007879E-01
 cg2d: Sum(rhs),rhsMax =  -3.91076060424211E-14  5.60420635953003E-01
 cg2d: Sum(rhs),rhsMax =   1.01391117723892E-13  5.60281656260539E-01
 cg2d: Sum(rhs),rhsMax =   2.33257857473745E-13  5.60141759641107E-01
 cg2d: Sum(rhs),rhsMax =  -5.26662047306559E-14  5.60000480346444E-01
 cg2d: Sum(rhs),rhsMax =   1.54834478571786E-13  5.59857752670170E-01
 cg2d: Sum(rhs),rhsMax =   8.04079025584770E-14  5.59713248987591E-01
 cg2d: Sum(rhs),rhsMax =   2.73947531326257E-14  5.59566913067657E-01
 cg2d: Sum(rhs),rhsMax =  -1.91235915991683E-14  5.59418580991582E-01
 cg2d: Sum(rhs),rhsMax =   2.72823430513824E-13  5.59268362682387E-01
 cg2d: Sum(rhs),rhsMax =  -4.77673456344974E-14  5.59116135696746E-01
 cg2d: Sum(rhs),rhsMax =   1.84408044390239E-13  5.58962142522292E-01
 cg2d: Sum(rhs),rhsMax =  -3.26266791361718E-14  5.58806466290998E-01
 cg2d: Sum(rhs),rhsMax =   8.54594173205214E-14  5.58649460599908E-01
 cg2d: Sum(rhs),rhsMax =   1.65548130759419E-13  5.58491306504765E-01
 cg2d: Sum(rhs),rhsMax =   1.28314026071052E-13  5.58332403649143E-01
 cg2d: Sum(rhs),rhsMax =   1.64576685612872E-13  5.58172458305246E-01
 cg2d: Sum(rhs),rhsMax =  -2.52992071736458E-13  5.58011974003490E-01
 cg2d: Sum(rhs),rhsMax =  -2.95194424460021E-13  5.57853407243768E-01
 cg2d: Sum(rhs),rhsMax =   2.35408914583957E-13  5.57696462245587E-01
 cg2d: Sum(rhs),rhsMax =   4.75453010295723E-13  5.57539557098758E-01
 cg2d: Sum(rhs),rhsMax =   2.55045984332014E-13  5.57382971827197E-01
 cg2d: Sum(rhs),rhsMax =  -2.54712917424627E-13  5.57226827018296E-01
 cg2d: Sum(rhs),rhsMax =  -2.98372437868011E-14  5.57071445153525E-01
 cg2d: Sum(rhs),rhsMax =   1.36141098394660E-13  5.56916904460868E-01
 cg2d: Sum(rhs),rhsMax =  -1.01155195331160E-13  5.56763517265658E-01
 cg2d: Sum(rhs),rhsMax =   2.82371348525601E-13  5.56611314399722E-01
 cg2d: Sum(rhs),rhsMax =  -1.63299929134553E-13  5.56460509583158E-01
 cg2d: Sum(rhs),rhsMax =  -3.54785645306777E-13  5.56311066788140E-01
 cg2d: Sum(rhs),rhsMax =  -2.25555685240408E-13  5.56163126302281E-01
 cg2d: Sum(rhs),rhsMax =   3.00259817009874E-13  5.56016590252865E-01
 cg2d: Sum(rhs),rhsMax =  -4.37053171431501E-13  5.55871481153725E-01
 cg2d: Sum(rhs),rhsMax =   2.05474526282501E-13  5.55727599195592E-01
 cg2d: Sum(rhs),rhsMax =   3.41726646979623E-13  5.55584920136927E-01
 cg2d: Sum(rhs),rhsMax =   1.17128529097954E-13  5.55443046923406E-01
 cg2d: Sum(rhs),rhsMax =   4.47156200955590E-13  5.55301556445242E-01
 cg2d: Sum(rhs),rhsMax =   1.65173430488608E-13  5.55159978178366E-01
 cg2d: Sum(rhs),rhsMax =   4.61491955761062E-13  5.55018119568114E-01
 cg2d: Sum(rhs),rhsMax =  -3.43614026121486E-14  5.54875597730264E-01
 cg2d: Sum(rhs),rhsMax =   1.48991929904696E-13  5.54732311737296E-01
 cg2d: Sum(rhs),rhsMax =  -3.87703757986912E-13  5.54587939355187E-01
 cg2d: Sum(rhs),rhsMax =  -1.90972238023335E-13  5.54442353911244E-01
 cg2d: Sum(rhs),rhsMax =  -6.22557561058557E-14  5.54295298828796E-01
 cg2d: Sum(rhs),rhsMax =   2.11219930434936E-14  5.54146552646609E-01
 cg2d: Sum(rhs),rhsMax =   3.13374326488258E-13  5.53995746423753E-01
 cg2d: Sum(rhs),rhsMax =  -2.36810571152546E-13  5.53843008255257E-01
 cg2d: Sum(rhs),rhsMax =   4.30364077708134E-13  5.53688270218006E-01
 cg2d: Sum(rhs),rhsMax =   5.30409050014669E-14  5.53531640742504E-01
 cg2d: Sum(rhs),rhsMax =  -5.85614889914154E-13  5.53373121781906E-01
 cg2d: Sum(rhs),rhsMax =   3.31318306123762E-13  5.53212932140023E-01
 cg2d: Sum(rhs),rhsMax =   1.98882577073789E-13  5.53051156033544E-01
 cg2d: Sum(rhs),rhsMax =   1.27425847651352E-13  5.52887949252057E-01
 cg2d: Sum(rhs),rhsMax =  -1.59705582092329E-13  5.52723017439133E-01
 cg2d: Sum(rhs),rhsMax =   1.49116829994966E-13  5.52556677147989E-01
 cg2d: Sum(rhs),rhsMax =  -1.93470239828741E-13  5.52389140943249E-01
 cg2d: Sum(rhs),rhsMax =   4.86694018420053E-14  5.52220771707458E-01
 cg2d: Sum(rhs),rhsMax =   3.79404840877839E-13  5.52051854685243E-01
 cg2d: Sum(rhs),rhsMax =   4.23966417528732E-14  5.51882766512030E-01
 cg2d: Sum(rhs),rhsMax =  -2.46663800496094E-13  5.51713782175258E-01
 cg2d: Sum(rhs),rhsMax =   2.73489564328599E-13  5.51545283168884E-01
 cg2d: Sum(rhs),rhsMax =  -3.41129902103887E-13  5.51377506104340E-01
 cg2d: Sum(rhs),rhsMax =  -3.79862807875497E-13  5.51210788165562E-01
 cg2d: Sum(rhs),rhsMax =  -1.49130707782774E-13  5.51045345037848E-01
 cg2d: Sum(rhs),rhsMax =  -1.15879528195251E-14  5.50881549123672E-01
 cg2d: Sum(rhs),rhsMax =  -2.50702236748168E-13  5.50719300364624E-01
 cg2d: Sum(rhs),rhsMax =   2.70047872952262E-13  5.50558815394432E-01
 cg2d: Sum(rhs),rhsMax =   2.64607780131598E-13  5.50400088777767E-01
 cg2d: Sum(rhs),rhsMax =  -1.02279296143593E-13  5.50243169618128E-01
 cg2d: Sum(rhs),rhsMax =   9.72555369571637E-14  5.50087941191675E-01
 cg2d: Sum(rhs),rhsMax =   2.42916797787984E-13  5.49934317750968E-01
 cg2d: Sum(rhs),rhsMax =  -2.51493270653214E-13  5.49782112138959E-01
 cg2d: Sum(rhs),rhsMax =   3.79002385031413E-14  5.49631107037670E-01
 cg2d: Sum(rhs),rhsMax =   2.76889622341514E-13  5.49481043784909E-01
 cg2d: Sum(rhs),rhsMax =   5.83144643684363E-14  5.49331690832039E-01
 cg2d: Sum(rhs),rhsMax =  -3.25919846666523E-13  5.49182793977294E-01
 cg2d: Sum(rhs),rhsMax =   1.03181352351100E-13  5.49033649633677E-01
 cg2d: Sum(rhs),rhsMax =   1.84532944480509E-13  5.48883885196357E-01
 cg2d: Sum(rhs),rhsMax =  -8.16013923099490E-15  5.48732861881756E-01
 cg2d: Sum(rhs),rhsMax =   1.29840582729912E-13  5.48580522551347E-01
 cg2d: Sum(rhs),rhsMax =  -1.38236644353640E-13  5.48426895531811E-01
 cg2d: Sum(rhs),rhsMax =  -1.28466681736938E-13  5.48271808540062E-01
 cg2d: Sum(rhs),rhsMax =   1.71709868546088E-13  5.48115221477480E-01
 cg2d: Sum(rhs),rhsMax =  -6.13814554739633E-14  5.47957048315862E-01
 cg2d: Sum(rhs),rhsMax =  -3.61100038759332E-14  5.47797270098347E-01
 cg2d: Sum(rhs),rhsMax =  -6.82648382266393E-14  5.47635916071079E-01
 cg2d: Sum(rhs),rhsMax =   3.38479244632595E-14  5.47473110564707E-01
 cg2d: Sum(rhs),rhsMax =   2.20545803841787E-13  5.47308946181777E-01
 cg2d: Sum(rhs),rhsMax =  -1.30118138486068E-13  5.47143410141152E-01
 cg2d: Sum(rhs),rhsMax =   3.51885187654943E-13  5.46976322801159E-01
 cg2d: Sum(rhs),rhsMax =  -7.20423720679264E-13  5.46807941070992E-01
 cg2d: Sum(rhs),rhsMax =   2.08971728810070E-13  5.46638494916185E-01
 cg2d: Sum(rhs),rhsMax =   4.19733692247348E-13  5.46468288320083E-01
 cg2d: Sum(rhs),rhsMax =   7.15677517248992E-14  5.46297615769958E-01
 cg2d: Sum(rhs),rhsMax =  -2.05085948223882E-13  5.46126837943406E-01
 cg2d: Sum(rhs),rhsMax =  -1.66311409088848E-13  5.45956254009071E-01
 cg2d: Sum(rhs),rhsMax =  -4.10962930352810E-13  5.45786221390450E-01
 cg2d: Sum(rhs),rhsMax =   6.84480250257025E-13  5.45617078474849E-01
 cg2d: Sum(rhs),rhsMax =  -2.15022444294277E-13  5.45448283934219E-01
 cg2d: Sum(rhs),rhsMax =  -3.18897686035768E-13  5.45283179128478E-01
 cg2d: Sum(rhs),rhsMax =  -3.16552339896248E-13  5.45117051755499E-01
 cg2d: Sum(rhs),rhsMax =   1.25843779841261E-13  5.44954462729776E-01
 cg2d: Sum(rhs),rhsMax =   1.27300947561082E-13  5.44794940985399E-01
 cg2d: Sum(rhs),rhsMax =   1.79647963172158E-13  5.44634768697452E-01
 cg2d: Sum(rhs),rhsMax =  -3.33622018899860E-13  5.44478619697170E-01
 cg2d: Sum(rhs),rhsMax =   7.14983627858601E-14  5.44324447212892E-01
 cg2d: Sum(rhs),rhsMax =  -2.90142909697977E-13  5.44172175902974E-01
 cg2d: Sum(rhs),rhsMax =   3.35592664768569E-13  5.44021803867816E-01
 cg2d: Sum(rhs),rhsMax =  -1.48325796089921E-13  5.43873085539324E-01
 cg2d: Sum(rhs),rhsMax =  -1.82423520733721E-13  5.43725782165468E-01
 cg2d: Sum(rhs),rhsMax =  -1.62037050444042E-13  5.43579592202119E-01
 cg2d: Sum(rhs),rhsMax =  -1.08413278354647E-13  5.43434195750507E-01
 cg2d: Sum(rhs),rhsMax =  -1.66491820330350E-13  5.43289246387528E-01
 cg2d: Sum(rhs),rhsMax =   2.77708411822175E-13  5.43144409871996E-01
 cg2d: Sum(rhs),rhsMax =  -4.10269040962419E-13  5.42999248621456E-01
 cg2d: Sum(rhs),rhsMax =   4.97796248666305E-14  5.42853526121796E-01
 cg2d: Sum(rhs),rhsMax =  -3.67067487516692E-13  5.42706743486421E-01
 cg2d: Sum(rhs),rhsMax =   1.40207290222349E-13  5.42558304194150E-01
 cg2d: Sum(rhs),rhsMax =   3.24101856463699E-13  5.42407957927907E-01
 cg2d: Sum(rhs),rhsMax =   6.56141807553468E-14  5.42255540136549E-01
 cg2d: Sum(rhs),rhsMax =   2.03878580684602E-13  5.42100931665306E-01
 cg2d: Sum(rhs),rhsMax =   4.47419878923938E-14  5.41944059744706E-01
 cg2d: Sum(rhs),rhsMax =  -1.38028477536523E-13  5.41784927151955E-01
 cg2d: Sum(rhs),rhsMax =   4.55885329486705E-14  5.41623570950528E-01
 cg2d: Sum(rhs),rhsMax =   1.94844140821715E-14  5.41459798380029E-01
 cg2d: Sum(rhs),rhsMax =   8.41354763636559E-13  5.41293492052054E-01
 cg2d: Sum(rhs),rhsMax =  -3.61349838939873E-13  5.41124932386774E-01
 cg2d: Sum(rhs),rhsMax =  -3.48054918219987E-14  5.40954331054102E-01
 cg2d: Sum(rhs),rhsMax =   4.84681739187920E-13  5.40782003519699E-01
 cg2d: Sum(rhs),rhsMax =   2.18505769034039E-13  5.40608217588432E-01
 cg2d: Sum(rhs),rhsMax =   3.27141091993610E-13  5.40433351531479E-01
 cg2d: Sum(rhs),rhsMax =  -6.41847686111419E-14  5.40257774287073E-01
 cg2d: Sum(rhs),rhsMax =   1.54598556179053E-13  5.40081907393639E-01
 cg2d: Sum(rhs),rhsMax =   7.00828284294630E-14  5.39906159292850E-01
 cg2d: Sum(rhs),rhsMax =   3.83734710673878E-13  5.39730984618980E-01
 cg2d: Sum(rhs),rhsMax =  -1.35169653248113E-14  5.39551114117430E-01
 cg2d: Sum(rhs),rhsMax =  -3.40713568469653E-13  5.39372959459824E-01
 cg2d: Sum(rhs),rhsMax =   5.46562795022965E-13  5.39197067761467E-01
 cg2d: Sum(rhs),rhsMax =  -1.90417126511022E-13  5.39023620365284E-01
 cg2d: Sum(rhs),rhsMax =  -4.80476769482152E-13  5.38853009162701E-01
 cg2d: Sum(rhs),rhsMax =  -2.80275802566621E-13  5.38685398803686E-01
 cg2d: Sum(rhs),rhsMax =   2.65759636519647E-14  5.38521009053236E-01
 cg2d: Sum(rhs),rhsMax =  -2.52575738102223E-14  5.38359981807374E-01
 cg2d: Sum(rhs),rhsMax =   7.85899123556533E-14  5.38202266632752E-01
 cg2d: Sum(rhs),rhsMax =   1.52988732793347E-13  5.38047793037147E-01
 cg2d: Sum(rhs),rhsMax =  -3.24323901068624E-13  5.37896392851166E-01
 cg2d: Sum(rhs),rhsMax =  -1.67768576808669E-13  5.37747717589759E-01
 cg2d: Sum(rhs),rhsMax =  -1.32269195596280E-13  5.37601236513617E-01
 cg2d: Sum(rhs),rhsMax =   1.93262073011624E-13  5.37456633373905E-01
 cg2d: Sum(rhs),rhsMax =   4.10782519111308E-13  5.37313429480468E-01
 cg2d: Sum(rhs),rhsMax =  -1.13686837721616E-13  5.37171188344548E-01
 cg2d: Sum(rhs),rhsMax =  -3.75310893474534E-13  5.37029481668975E-01
 cg2d: Sum(rhs),rhsMax =   5.55208656827233E-13  5.36849236799704E-01
 cg2d: Sum(rhs),rhsMax =  -5.84143844406526E-13  5.36621626854612E-01
 cg2d: Sum(rhs),rhsMax =  -2.65162891643911E-13  5.36392627100735E-01
 cg2d: Sum(rhs),rhsMax =   6.00908212078366E-15  5.36163093086276E-01
 cg2d: Sum(rhs),rhsMax =   7.35522753814166E-14  5.35932356212508E-01
 cg2d: Sum(rhs),rhsMax =  -3.20493631633667E-13  5.35700212194981E-01
 cg2d: Sum(rhs),rhsMax =   4.43367564884056E-13  5.35466423117229E-01
 cg2d: Sum(rhs),rhsMax =   5.75928194024300E-15  5.35230806403852E-01
 cg2d: Sum(rhs),rhsMax =   2.50022225145585E-13  5.34993276622316E-01
 cg2d: Sum(rhs),rhsMax =  -3.08489345179908E-13  5.34752344628366E-01
 cg2d: Sum(rhs),rhsMax =  -2.01644256847544E-14  5.34509389344560E-01
 cg2d: Sum(rhs),rhsMax =   5.16919840265473E-13  5.34264567173912E-01
 cg2d: Sum(rhs),rhsMax =  -5.08343367400244E-14  5.34017991029110E-01
 cg2d: Sum(rhs),rhsMax =   6.71407374142063E-14  5.33769885321095E-01
 cg2d: Sum(rhs),rhsMax =   3.21895288202256E-13  5.33520504969172E-01
 cg2d: Sum(rhs),rhsMax =   3.24601456824780E-13  5.33270136926879E-01
 cg2d: Sum(rhs),rhsMax =   5.76400038809766E-13  5.33019061426043E-01
 cg2d: Sum(rhs),rhsMax =   4.22106793962485E-13  5.32767553903216E-01
 cg2d: Sum(rhs),rhsMax =  -4.45185555086880E-13  5.32515991073737E-01
 cg2d: Sum(rhs),rhsMax =   4.15431578026926E-13  5.32264780151042E-01
 cg2d: Sum(rhs),rhsMax =  -1.52752810400614E-13  5.32014330769668E-01
 cg2d: Sum(rhs),rhsMax =  -1.32255317808472E-13  5.31764842392125E-01
 cg2d: Sum(rhs),rhsMax =  -1.03070330048638E-13  5.31516825651810E-01
 cg2d: Sum(rhs),rhsMax =  -2.78277401122295E-13  5.31271084940697E-01
 cg2d: Sum(rhs),rhsMax =   1.50171541868360E-13  5.31027516923649E-01
 cg2d: Sum(rhs),rhsMax =   2.45192754988466E-13  5.30786415939019E-01
 cg2d: Sum(rhs),rhsMax =  -4.59354776438659E-15  5.30547973351683E-01
 cg2d: Sum(rhs),rhsMax =  -1.26065824446187E-13  5.30312341652894E-01
 cg2d: Sum(rhs),rhsMax =   2.35714225915729E-13  5.30079596317635E-01
 cg2d: Sum(rhs),rhsMax =  -9.98090499138016E-14  5.29849762158823E-01
 cg2d: Sum(rhs),rhsMax =   5.44370104549330E-13  5.29622922755980E-01
 cg2d: Sum(rhs),rhsMax =   6.67244037799719E-14  5.29399009752734E-01
 cg2d: Sum(rhs),rhsMax =   4.42285097435047E-14  5.29177825961149E-01
 cg2d: Sum(rhs),rhsMax =  -4.54872250976734E-13  5.28959137650938E-01
 cg2d: Sum(rhs),rhsMax =  -8.66640093022397E-13  5.28742657084350E-01
 cg2d: Sum(rhs),rhsMax =  -4.21593315813595E-13  5.28507980438080E-01
 cg2d: Sum(rhs),rhsMax =   2.15605311382205E-13  5.28272503328023E-01
 cg2d: Sum(rhs),rhsMax =  -4.26117474638943E-13  5.28038660670563E-01
 cg2d: Sum(rhs),rhsMax =  -3.30721561248026E-13  5.27805965220297E-01
 cg2d: Sum(rhs),rhsMax =   2.55434562390633E-13  5.27574128350190E-01
 cg2d: Sum(rhs),rhsMax =   4.10366185477073E-13  5.27342798869584E-01
 cg2d: Sum(rhs),rhsMax =  -1.90070181815827E-13  5.27112826485706E-01
 cg2d: Sum(rhs),rhsMax =   2.63483679319165E-13  5.26872342690862E-01
 cg2d: Sum(rhs),rhsMax =   3.34024474746286E-13  5.26630909337479E-01
 cg2d: Sum(rhs),rhsMax =  -2.11428097252053E-13  5.26388391489874E-01
 cg2d: Sum(rhs),rhsMax =  -8.07132138902489E-14  5.26144519082777E-01
 cg2d: Sum(rhs),rhsMax =  -8.59035065303715E-15  5.25899145366582E-01
 cg2d: Sum(rhs),rhsMax =   5.88182280658600E-13  5.25652158062222E-01
 cg2d: Sum(rhs),rhsMax =  -5.10619324600725E-13  5.25403471878291E-01
 cg2d: Sum(rhs),rhsMax =   3.63278851445159E-13  5.25153111987808E-01
 cg2d: Sum(rhs),rhsMax =   1.56444301957492E-13  5.24901120230146E-01
 cg2d: Sum(rhs),rhsMax =   4.72677452734160E-14  5.24647639403434E-01
 cg2d: Sum(rhs),rhsMax =  -2.11081152556858E-14  5.24392829669981E-01
 cg2d: Sum(rhs),rhsMax =   5.44841949334796E-13  5.24136941377127E-01
 cg2d: Sum(rhs),rhsMax =   3.24185123190546E-14  5.23880239863087E-01
 cg2d: Sum(rhs),rhsMax =  -7.80348008433407E-14  5.23623043204140E-01
 cg2d: Sum(rhs),rhsMax =  -4.35068647774983E-14  5.23365691341403E-01
 cg2d: Sum(rhs),rhsMax =   4.20163903669390E-13  5.23108588736074E-01
 cg2d: Sum(rhs),rhsMax =   2.86701218321639E-13  5.22852096355157E-01
 cg2d: Sum(rhs),rhsMax =  -2.40071851287382E-13  5.22596626643108E-01
 cg2d: Sum(rhs),rhsMax =   3.14609449603154E-13  5.22342547153744E-01
 cg2d: Sum(rhs),rhsMax =   3.03340685903208E-13  5.22090236200770E-01
 cg2d: Sum(rhs),rhsMax =   2.49425480269849E-13  5.21840022623415E-01
 cg2d: Sum(rhs),rhsMax =  -2.33188468534706E-13  5.21592219169495E-01
 cg2d: Sum(rhs),rhsMax =   6.56155685341275E-13  5.21347059299879E-01
 cg2d: Sum(rhs),rhsMax =   2.76126344012084E-13  5.21104764768212E-01
 cg2d: Sum(rhs),rhsMax =  -4.64808747047130E-13  5.20865455528001E-01
 cg2d: Sum(rhs),rhsMax =  -2.62567745323850E-13  5.20629216829543E-01
 cg2d: Sum(rhs),rhsMax =  -5.21152565546856E-13  5.20396044284896E-01
 cg2d: Sum(rhs),rhsMax =   1.67185709720741E-13  5.20165899930753E-01
 cg2d: Sum(rhs),rhsMax =  -2.51673681894715E-13  5.19937990821727E-01
 cg2d: Sum(rhs),rhsMax =   1.15921161558674E-13  5.19712821237402E-01
 cg2d: Sum(rhs),rhsMax =  -6.59056142993109E-14  5.19490149521406E-01
 cg2d: Sum(rhs),rhsMax =   7.04117320005082E-13  5.19269724852471E-01
 cg2d: Sum(rhs),rhsMax =   6.66272592653172E-14  5.19051209177668E-01
 cg2d: Sum(rhs),rhsMax =   2.81372147803438E-13  5.18834277400291E-01
 cg2d: Sum(rhs),rhsMax =   1.60038648999716E-13  5.18618646532128E-01
 cg2d: Sum(rhs),rhsMax =   2.56808463383607E-13  5.18405634582318E-01
 cg2d: Sum(rhs),rhsMax =   1.63730140556595E-13  5.18192750062753E-01
 cg2d: Sum(rhs),rhsMax =  -3.54535845126236E-13  5.17979571767712E-01
 cg2d: Sum(rhs),rhsMax =   2.52312060133875E-13  5.17765782211612E-01
 cg2d: Sum(rhs),rhsMax =  -1.39721567649076E-13  5.17551093354818E-01
 cg2d: Sum(rhs),rhsMax =  -9.17155240642842E-13  5.17335256629340E-01
 cg2d: Sum(rhs),rhsMax =  -5.42316191953773E-13  5.17118110723842E-01
 cg2d: Sum(rhs),rhsMax =   2.80692136200855E-13  5.16899508708997E-01
 cg2d: Sum(rhs),rhsMax =   3.58046925441613E-15  5.16679401093216E-01
 cg2d: Sum(rhs),rhsMax =   2.75196532228961E-13  5.16457750614445E-01
 cg2d: Sum(rhs),rhsMax =  -1.92124094411383E-13  5.16576889675685E-01
 cg2d: Sum(rhs),rhsMax =  -2.34812169708221E-14  5.16890119760593E-01
 cg2d: Sum(rhs),rhsMax =  -9.15240105925363E-14  5.17199772422407E-01
 cg2d: Sum(rhs),rhsMax =   3.70828368012610E-13  5.17506087590697E-01
 cg2d: Sum(rhs),rhsMax =  -2.72129541123434E-13  5.17809199000603E-01
 cg2d: Sum(rhs),rhsMax =  -1.62522773017315E-13  5.18109348637893E-01
 cg2d: Sum(rhs),rhsMax =   2.85077517148125E-13  5.18406931422718E-01
 cg2d: Sum(rhs),rhsMax =   1.99798511069105E-13  5.18702285079932E-01
 cg2d: Sum(rhs),rhsMax =   4.23827639650654E-14  5.18996063957896E-01
 cg2d: Sum(rhs),rhsMax =  -4.02872180060854E-14  5.19288879052775E-01
 cg2d: Sum(rhs),rhsMax =  -1.68490221774675E-13  5.19580891559902E-01
 cg2d: Sum(rhs),rhsMax =  -4.08423295183979E-14  5.19872279396183E-01
 cg2d: Sum(rhs),rhsMax =   3.07448511094321E-13  5.20163205794731E-01
 cg2d: Sum(rhs),rhsMax =  -7.98250354705488E-14  5.20453851675449E-01
 cg2d: Sum(rhs),rhsMax =  -3.75796616047808E-13  5.20744394747500E-01
 cg2d: Sum(rhs),rhsMax =   1.85421122900209E-13  5.21034985206486E-01
 cg2d: Sum(rhs),rhsMax =  -2.27567964472541E-13  5.21325675588649E-01
 cg2d: Sum(rhs),rhsMax =  -3.70134478622219E-13  5.21616295283352E-01
 cg2d: Sum(rhs),rhsMax =  -2.52992071736458E-14  5.21907208204432E-01
 cg2d: Sum(rhs),rhsMax =  -2.21989093773800E-13  5.22198484712612E-01
 cg2d: Sum(rhs),rhsMax =   1.52003409858992E-13  5.22490251811568E-01
 cg2d: Sum(rhs),rhsMax =  -3.36328187522383E-13  5.22782589432851E-01
 cg2d: Sum(rhs),rhsMax =   3.59934304583476E-13  5.23075533947560E-01
 cg2d: Sum(rhs),rhsMax =   2.03267958021058E-13  5.23369112404527E-01
 cg2d: Sum(rhs),rhsMax =  -3.55424023545936E-13  5.23663227981492E-01
 cg2d: Sum(rhs),rhsMax =  -2.89157586763622E-13  5.23957975921066E-01
 cg2d: Sum(rhs),rhsMax =  -7.53008766452012E-14  5.24253274871551E-01
 cg2d: Sum(rhs),rhsMax =   1.06276099032243E-13  5.24548896272216E-01
 cg2d: Sum(rhs),rhsMax =  -5.44425615700561E-14  5.24844587820530E-01
 cg2d: Sum(rhs),rhsMax =   9.70057367766231E-14  5.25143554148379E-01
 cg2d: Sum(rhs),rhsMax =   4.01706445884997E-13  5.25445638363557E-01
 cg2d: Sum(rhs),rhsMax =   2.84522405635812E-13  5.25747814526960E-01
 cg2d: Sum(rhs),rhsMax =   3.05686032042729E-13  5.26049948872140E-01
 cg2d: Sum(rhs),rhsMax =  -7.71743779992562E-14  5.26351445814956E-01
 cg2d: Sum(rhs),rhsMax =   1.77635683940025E-14  5.26652140912684E-01
 cg2d: Sum(rhs),rhsMax =   3.97168409271842E-13  5.26951925737092E-01
 cg2d: Sum(rhs),rhsMax =  -2.24265050974282E-14  5.27250686027566E-01
 cg2d: Sum(rhs),rhsMax =  -3.22922244500035E-13  5.27548271064445E-01
 cg2d: Sum(rhs),rhsMax =   1.76483827551976E-13  5.27844528681444E-01
 cg2d: Sum(rhs),rhsMax =  -1.58623114643319E-14  5.28139345486568E-01
 cg2d: Sum(rhs),rhsMax =   2.74197331506798E-13  5.28432916988268E-01
 cg2d: Sum(rhs),rhsMax =   1.26426646929190E-14  5.28725190272595E-01
 cg2d: Sum(rhs),rhsMax =  -2.39974706772728E-13  5.29015983552412E-01
 cg2d: Sum(rhs),rhsMax =  -3.29583582647786E-13  5.29305295848217E-01
 cg2d: Sum(rhs),rhsMax =  -5.66838243010181E-13  5.29593105872383E-01
 cg2d: Sum(rhs),rhsMax =   4.35915192831260E-13  5.29879337086410E-01
 cg2d: Sum(rhs),rhsMax =   1.27967081375857E-13  5.30164090056312E-01
 cg2d: Sum(rhs),rhsMax =   6.58362253602718E-14  5.30447442298515E-01
 cg2d: Sum(rhs),rhsMax =  -3.15372727932584E-13  5.30729518218098E-01
 cg2d: Sum(rhs),rhsMax =   2.88338797282961E-13  5.31010288843062E-01
 cg2d: Sum(rhs),rhsMax =  -2.88102874890228E-14  5.31289933695588E-01
 cg2d: Sum(rhs),rhsMax =   1.50157664080552E-13  5.31568452448118E-01
 cg2d: Sum(rhs),rhsMax =  -2.06071271158237E-13  5.31846200934439E-01
 cg2d: Sum(rhs),rhsMax =  -2.20420903751517E-13  5.32123329432818E-01
 cg2d: Sum(rhs),rhsMax =   1.44301237625655E-13  5.32400511480579E-01
 cg2d: Sum(rhs),rhsMax =   1.39610545346613E-14  5.32676121659678E-01
 cg2d: Sum(rhs),rhsMax =  -2.79193335117611E-13  5.32952508824273E-01
 cg2d: Sum(rhs),rhsMax =  -2.17201256980104E-13  5.33229177666708E-01
 cg2d: Sum(rhs),rhsMax =  -4.42923475674206E-13  5.33504347820100E-01
 cg2d: Sum(rhs),rhsMax =   5.25884891189321E-13  5.33781108181617E-01
 cg2d: Sum(rhs),rhsMax =   2.73184252996828E-13  5.34056832717836E-01
 cg2d: Sum(rhs),rhsMax =  -7.74519337554125E-14  5.34332562252748E-01
 cg2d: Sum(rhs),rhsMax =   4.75855466142150E-13  5.34610533336039E-01
 cg2d: Sum(rhs),rhsMax =  -7.30665528081431E-14  5.34887576287958E-01
 cg2d: Sum(rhs),rhsMax =  -3.02299851817622E-13  5.35162188073796E-01
 cg2d: Sum(rhs),rhsMax =  -1.17961196366423E-13  5.35433954995378E-01
 cg2d: Sum(rhs),rhsMax =   1.37376221509555E-13  5.35702558197416E-01
 cg2d: Sum(rhs),rhsMax =   2.62331822931117E-13  5.35967561439009E-01
 cg2d: Sum(rhs),rhsMax =  -2.60041987942827E-13  5.36227358066838E-01
 cg2d: Sum(rhs),rhsMax =   2.93098878501041E-14  5.36482530140359E-01
 cg2d: Sum(rhs),rhsMax =  -4.47183956531205E-13  5.36732955398464E-01
 cg2d: Sum(rhs),rhsMax =  -2.96804247845728E-13  5.36978483527689E-01
 cg2d: Sum(rhs),rhsMax =   2.55295784512555E-13  5.37219022361887E-01
 cg2d: Sum(rhs),rhsMax =  -2.63691846136282E-13  5.37454528829095E-01
 cg2d: Sum(rhs),rhsMax =  -3.23061022378113E-13  5.37684942547126E-01
 cg2d: Sum(rhs),rhsMax =   2.30371277609720E-14  5.37910228372356E-01
 cg2d: Sum(rhs),rhsMax =  -5.91693360973977E-13  5.38130412629175E-01
 cg2d: Sum(rhs),rhsMax =  -1.81993309311679E-13  5.38345382096994E-01
 cg2d: Sum(rhs),rhsMax =   1.44467771079348E-14  5.38555269529241E-01
 cg2d: Sum(rhs),rhsMax =   4.23175383623686E-13  5.38764870292576E-01
 cg2d: Sum(rhs),rhsMax =  -3.67081365304500E-13  5.38969758112844E-01
 cg2d: Sum(rhs),rhsMax =  -2.78235767758872E-13  5.39169565559146E-01
 cg2d: Sum(rhs),rhsMax =   1.78052017574259E-14  5.39364652043447E-01
 cg2d: Sum(rhs),rhsMax =  -2.86645707170408E-13  5.39555394484396E-01
 cg2d: Sum(rhs),rhsMax =   2.49522624784504E-13  5.39742168913030E-01
 cg2d: Sum(rhs),rhsMax =   2.73447930965176E-13  5.39925353825882E-01
 cg2d: Sum(rhs),rhsMax =  -9.40358901857508E-14  5.40105334021713E-01
 cg2d: Sum(rhs),rhsMax =  -2.10095829622503E-13  5.40282514693740E-01
 cg2d: Sum(rhs),rhsMax =   3.37438410547009E-13  5.40457288415534E-01
 cg2d: Sum(rhs),rhsMax =  -2.32258656751583E-13  5.40630024199376E-01
 cg2d: Sum(rhs),rhsMax =  -8.47238945667073E-14  5.40801089583039E-01
 cg2d: Sum(rhs),rhsMax =  -1.24233956455555E-13  5.40972340263305E-01
 cg2d: Sum(rhs),rhsMax =  -6.66133814775094E-16  5.41142535989983E-01
 cg2d: Sum(rhs),rhsMax =  -3.77475828372553E-14  5.41311885161124E-01
 cg2d: Sum(rhs),rhsMax =  -1.25691124175376E-13  5.41480543720841E-01
 cg2d: Sum(rhs),rhsMax =   5.00516295076636E-13  5.41648659937854E-01
 cg2d: Sum(rhs),rhsMax =   9.56179579958416E-14  5.41816352084698E-01
 cg2d: Sum(rhs),rhsMax =   3.86080056813398E-13  5.41983701439956E-01
 cg2d: Sum(rhs),rhsMax =  -3.58782448195427E-13  5.42150734045445E-01
 cg2d: Sum(rhs),rhsMax =  -5.45813394481343E-14  5.42317430311650E-01
 cg2d: Sum(rhs),rhsMax =  -2.70686251191421E-13  5.42484169041054E-01
 cg2d: Sum(rhs),rhsMax =  -4.82669459955787E-14  5.42651204387414E-01
 cg2d: Sum(rhs),rhsMax =  -2.69506639227757E-14  5.42818248835336E-01
 cg2d: Sum(rhs),rhsMax =   2.76847988978091E-13  5.42984582231900E-01
 cg2d: Sum(rhs),rhsMax =   8.76701489183063E-13  5.43150010724207E-01
 cg2d: Sum(rhs),rhsMax =  -5.27008992001754E-13  5.43314323384075E-01
 cg2d: Sum(rhs),rhsMax =   1.43704492749919E-13  5.43477295696347E-01
 cg2d: Sum(rhs),rhsMax =  -9.50073353322978E-14  5.43625625554977E-01
 cg2d: Sum(rhs),rhsMax =   2.62595500899465E-13  5.43770911489973E-01
 cg2d: Sum(rhs),rhsMax =   3.42101347250434E-13  5.43913356087479E-01
 cg2d: Sum(rhs),rhsMax =  -4.33403313238045E-14  5.44052710792380E-01
 cg2d: Sum(rhs),rhsMax =  -2.88255530556114E-13  5.44188950472605E-01
 cg2d: Sum(rhs),rhsMax =  -3.40713568469653E-13  5.44321960716478E-01
 cg2d: Sum(rhs),rhsMax =   1.40817912885893E-13  5.44451641948139E-01
 cg2d: Sum(rhs),rhsMax =   1.51892387556529E-13  5.44577972631800E-01
 cg2d: Sum(rhs),rhsMax =   2.16660023255599E-13  5.44700990185651E-01
 cg2d: Sum(rhs),rhsMax =   1.53946300152086E-13  5.44820751766476E-01
 cg2d: Sum(rhs),rhsMax =  -2.69381739137486E-13  5.44937356175195E-01
 cg2d: Sum(rhs),rhsMax =   7.35939087448401E-14  5.45050882650405E-01
 cg2d: Sum(rhs),rhsMax =  -2.56586418778681E-13  5.45161380147408E-01
 cg2d: Sum(rhs),rhsMax =   1.49227852297429E-13  5.45269013474560E-01
 cg2d: Sum(rhs),rhsMax =  -2.84938739270046E-13  5.45373981115997E-01
 cg2d: Sum(rhs),rhsMax =   1.98133176532167E-13  5.45476356961955E-01
 cg2d: Sum(rhs),rhsMax =   9.61869472959620E-14  5.45576429535418E-01
 cg2d: Sum(rhs),rhsMax =   3.31346061699378E-13  5.45673925939371E-01
 cg2d: Sum(rhs),rhsMax =  -5.33600941210466E-14  5.45769210671226E-01
 cg2d: Sum(rhs),rhsMax =  -2.84092194213770E-13  5.45862542340987E-01
 cg2d: Sum(rhs),rhsMax =   1.56957780106382E-14  5.45954172430312E-01
 cg2d: Sum(rhs),rhsMax =   2.27512453321310E-13  5.46044390259179E-01
 cg2d: Sum(rhs),rhsMax =   2.41501263431587E-13  5.46133445344785E-01
 cg2d: Sum(rhs),rhsMax =  -2.00311989217994E-13  5.46221564813921E-01
 cg2d: Sum(rhs),rhsMax =  -6.99301727635770E-14  5.46308982773695E-01
 cg2d: Sum(rhs),rhsMax =  -4.21898627145367E-13  5.46395305567991E-01
 cg2d: Sum(rhs),rhsMax =   7.06101843661600E-14  5.46481185133972E-01
 cg2d: Sum(rhs),rhsMax =  -1.93317584162855E-14  5.46566559697895E-01
 cg2d: Sum(rhs),rhsMax =   4.25076640553357E-14  5.46651603615827E-01
 cg2d: Sum(rhs),rhsMax =  -2.26263452418607E-13  5.46736355195268E-01
 cg2d: Sum(rhs),rhsMax =  -1.69295133467529E-13  5.46820752937929E-01
 cg2d: Sum(rhs),rhsMax =   1.13659082146000E-13  5.46904242101110E-01
 cg2d: Sum(rhs),rhsMax =  -1.31381017176579E-13  5.46986733212210E-01
 cg2d: Sum(rhs),rhsMax =   1.27356458712313E-13  5.47068132625217E-01
 cg2d: Sum(rhs),rhsMax =   4.05037114958873E-13  5.47148273804496E-01
 cg2d: Sum(rhs),rhsMax =  -2.28997376616746E-13  5.47226963113850E-01
 cg2d: Sum(rhs),rhsMax =   4.23133750260263E-14  5.47304014954393E-01
 cg2d: Sum(rhs),rhsMax =   2.38975506050565E-13  5.47379592555845E-01
 cg2d: Sum(rhs),rhsMax =  -3.05686032042729E-13  5.47452600427185E-01
 cg2d: Sum(rhs),rhsMax =  -8.20454815197991E-14  5.47523611108327E-01
 cg2d: Sum(rhs),rhsMax =   1.39555034195382E-13  5.47592297107615E-01
 cg2d: Sum(rhs),rhsMax =  -1.41595069003131E-13  5.47658415523509E-01
 cg2d: Sum(rhs),rhsMax =   8.52790060790198E-14  5.47721845188747E-01
 cg2d: Sum(rhs),rhsMax =   3.55895868331402E-13  5.47782474011976E-01
 cg2d: Sum(rhs),rhsMax =   1.01363362148277E-13  5.47840259075026E-01
 cg2d: Sum(rhs),rhsMax =  -3.90409926609436E-13  5.47895097936637E-01
 cg2d: Sum(rhs),rhsMax =  -8.78741523990811E-14  5.47946988375050E-01
 cg2d: Sum(rhs),rhsMax =  -2.58459920132736E-13  5.47995935454620E-01
 cg2d: Sum(rhs),rhsMax =   2.14273043752655E-13  5.48042011834566E-01
 cg2d: Sum(rhs),rhsMax =  -6.66272592653172E-14  5.48084834804040E-01
 cg2d: Sum(rhs),rhsMax =  -4.94188023836273E-14  5.48124943110028E-01
 cg2d: Sum(rhs),rhsMax =  -7.67302887894061E-14  5.48145429539051E-01
 cg2d: Sum(rhs),rhsMax =   2.69395616925294E-13  5.48163217651855E-01
 cg2d: Sum(rhs),rhsMax =   2.74225087082414E-13  5.48179240529114E-01
 cg2d: Sum(rhs),rhsMax =  -3.36355943097999E-13  5.48193532480451E-01
 cg2d: Sum(rhs),rhsMax =   2.08513761812412E-13  5.48206355988330E-01
 cg2d: Sum(rhs),rhsMax =   3.67331165485041E-13  5.48217969219386E-01
 cg2d: Sum(rhs),rhsMax =   4.78325712371941E-13  5.48228635569705E-01
 cg2d: Sum(rhs),rhsMax =  -1.45994327738208E-13  5.48238393451705E-01
 cg2d: Sum(rhs),rhsMax =  -1.29535271398140E-13  5.48247496908284E-01
 cg2d: Sum(rhs),rhsMax =  -3.48748807610377E-14  5.48256228058817E-01
 cg2d: Sum(rhs),rhsMax =  -4.04190569902596E-13  5.48264867940491E-01
 cg2d: Sum(rhs),rhsMax =  -3.93712840107696E-14  5.48273641445898E-01
 cg2d: Sum(rhs),rhsMax =   1.99867900008144E-13  5.48282551701773E-01
 cg2d: Sum(rhs),rhsMax =   7.71188668480249E-14  5.48291930211860E-01
 cg2d: Sum(rhs),rhsMax =  -1.90708560054986E-13  5.48305108757474E-01
 cg2d: Sum(rhs),rhsMax =   4.79061235125755E-14  5.48318499582423E-01
 cg2d: Sum(rhs),rhsMax =  -1.09634523681734E-13  5.48331425271301E-01
 cg2d: Sum(rhs),rhsMax =   1.15865650407443E-13  5.48343652713419E-01
 cg2d: Sum(rhs),rhsMax =   3.76018660652733E-13  5.48354899914527E-01
 cg2d: Sum(rhs),rhsMax =   3.74533737357297E-13  5.48364891377594E-01
 cg2d: Sum(rhs),rhsMax =  -1.05290776097888E-13  5.48373372170663E-01
 cg2d: Sum(rhs),rhsMax =   1.50018886202474E-13  5.48380108952435E-01
 cg2d: Sum(rhs),rhsMax =  -3.85233511757122E-13  5.48384639554304E-01
 cg2d: Sum(rhs),rhsMax =  -2.27318164292001E-14  5.48386993686212E-01
 cg2d: Sum(rhs),rhsMax =  -8.43769498715119E-15  5.48386984861866E-01
 cg2d: Sum(rhs),rhsMax =  -1.22679644221080E-14  5.48384437044721E-01
 cg2d: Sum(rhs),rhsMax =  -2.14966933143046E-13  5.48379194204935E-01
 cg2d: Sum(rhs),rhsMax =  -4.81281681175005E-14  5.48371114780914E-01
 cg2d: Sum(rhs),rhsMax =  -6.05071548420710E-15  5.48360101064127E-01
 cg2d: Sum(rhs),rhsMax =  -4.36456426555765E-14  5.48345754844819E-01
 cg2d: Sum(rhs),rhsMax =  -1.19126930542279E-13  5.48327998383121E-01
 cg2d: Sum(rhs),rhsMax =   6.21308560155853E-14  5.48306781646670E-01
 cg2d: Sum(rhs),rhsMax =  -2.29163910070440E-13  5.48282157393344E-01
 cg2d: Sum(rhs),rhsMax =   3.93768351258927E-13  5.48254259120135E-01
 cg2d: Sum(rhs),rhsMax =  -1.54654067330284E-13  5.48222975424156E-01
 cg2d: Sum(rhs),rhsMax =   4.99808527898438E-13  5.48188450186219E-01
 cg2d: Sum(rhs),rhsMax =  -2.92543766988729E-14  5.48150922957146E-01
 cg2d: Sum(rhs),rhsMax =  -4.83765805192604E-13  5.48110443034716E-01
 cg2d: Sum(rhs),rhsMax =   6.53227472113826E-14  5.48067224975042E-01
 cg2d: Sum(rhs),rhsMax =  -1.67255098659780E-13  5.48021467119039E-01
 cg2d: Sum(rhs),rhsMax =  -9.39803790345195E-14  5.47973382378228E-01
 cg2d: Sum(rhs),rhsMax =  -7.87842013849627E-14  5.47923193238494E-01
 cg2d: Sum(rhs),rhsMax =   1.53252410761695E-13  5.47871168568605E-01
 cg2d: Sum(rhs),rhsMax =  -4.35748659377566E-13  5.47817527847192E-01
 cg2d: Sum(rhs),rhsMax =   3.89480114826313E-13  5.47762449186373E-01
 cg2d: Sum(rhs),rhsMax =   6.86853351972161E-13  5.47706167587421E-01
 cg2d: Sum(rhs),rhsMax =  -1.72084568816899E-14  5.47648872358562E-01
 cg2d: Sum(rhs),rhsMax =  -3.33150174114394E-13  5.47590741770631E-01
 cg2d: Sum(rhs),rhsMax =   1.59830482182599E-13  5.47531928842619E-01
 cg2d: Sum(rhs),rhsMax =  -1.59566804214251E-13  5.47472519604832E-01
 cg2d: Sum(rhs),rhsMax =   4.46850889623818E-13  5.47412612072859E-01
 cg2d: Sum(rhs),rhsMax =  -4.40217307051682E-13  5.47352266937358E-01
 cg2d: Sum(rhs),rhsMax =   4.18928780554495E-13  5.47291530000580E-01
 cg2d: Sum(rhs),rhsMax =   3.28626015289046E-14  5.47230403545761E-01
 cg2d: Sum(rhs),rhsMax =   2.52714515980301E-13  5.47168853277033E-01
 cg2d: Sum(rhs),rhsMax =  -6.72101263532454E-14  5.47106812122937E-01
 cg2d: Sum(rhs),rhsMax =   5.30020471956050E-13  5.47044184558919E-01
 cg2d: Sum(rhs),rhsMax =  -3.21839777051025E-13  5.46980850280061E-01
 cg2d: Sum(rhs),rhsMax =   4.40827929715226E-13  5.46916666355999E-01
 cg2d: Sum(rhs),rhsMax =   6.23806561961260E-14  5.46851479156137E-01
 cg2d: Sum(rhs),rhsMax =   5.49421619311374E-14  5.46785146511216E-01
 cg2d: Sum(rhs),rhsMax =  -2.73739364509140E-13  5.46717511299675E-01
 cg2d: Sum(rhs),rhsMax =  -1.23165366794353E-13  5.46648403791287E-01
 cg2d: Sum(rhs),rhsMax =  -3.58213458895307E-13  5.46577661247944E-01
 cg2d: Sum(rhs),rhsMax =   3.99125177352744E-14  5.46506400538562E-01
 cg2d: Sum(rhs),rhsMax =   1.16823217766182E-13  5.46433189806716E-01
 cg2d: Sum(rhs),rhsMax =   4.77534678466895E-14  5.46357864875389E-01
 cg2d: Sum(rhs),rhsMax =  -4.04232203266019E-13  5.46280348858077E-01
 cg2d: Sum(rhs),rhsMax =  -5.89750470680883E-13  5.46200486037743E-01
 cg2d: Sum(rhs),rhsMax =  -2.66953126271119E-13  5.46118227413535E-01
 cg2d: Sum(rhs),rhsMax =   1.94649851792406E-13  5.46033550708709E-01
 cg2d: Sum(rhs),rhsMax =   2.72282196789320E-14  5.45946423107899E-01
 cg2d: Sum(rhs),rhsMax =  -5.46229728115577E-14  5.45856842495809E-01
 cg2d: Sum(rhs),rhsMax =  -1.18377530000657E-14  5.45764880532658E-01
 cg2d: Sum(rhs),rhsMax =  -2.00645056125381E-13  5.45670598690836E-01
 cg2d: Sum(rhs),rhsMax =   2.23057683435002E-13  5.45574087441714E-01
 cg2d: Sum(rhs),rhsMax =   1.95246596668142E-13  5.45475482914511E-01
 cg2d: Sum(rhs),rhsMax =   5.15379405818805E-13  5.45374922108898E-01
 cg2d: Sum(rhs),rhsMax =  -1.64965263671490E-13  5.45272558674876E-01
 cg2d: Sum(rhs),rhsMax =  -1.89959159513364E-13  5.45168645854562E-01
 cg2d: Sum(rhs),rhsMax =   3.02036173849274E-13  5.45063311344690E-01
 cg2d: Sum(rhs),rhsMax =   2.12774242669411E-13  5.44956761366646E-01
 cg2d: Sum(rhs),rhsMax =   1.85768067595404E-13  5.44849215659384E-01
 cg2d: Sum(rhs),rhsMax =   2.61526911238263E-13  5.44740869051588E-01
 cg2d: Sum(rhs),rhsMax =  -6.18116668960056E-14  5.44631925169481E-01
 cg2d: Sum(rhs),rhsMax =  -8.34748936640040E-14  5.44522577036952E-01
 cg2d: Sum(rhs),rhsMax =  -6.49924558615567E-13  5.44413007224896E-01
 cg2d: Sum(rhs),rhsMax =  -3.62473939752306E-13  5.44303371915405E-01
 cg2d: Sum(rhs),rhsMax =  -2.09082751112533E-13  5.44193813062798E-01
 cg2d: Sum(rhs),rhsMax =  -3.76310094196697E-13  5.43996946312632E-01
 cg2d: Sum(rhs),rhsMax =  -9.53681578153009E-14  5.43766540267831E-01
 cg2d: Sum(rhs),rhsMax =   2.81719092498633E-15  5.43536578102693E-01
 cg2d: Sum(rhs),rhsMax =  -1.06567532576207E-13  5.43307662860177E-01
 cg2d: Sum(rhs),rhsMax =  -4.70734562441066E-14  5.43079609451725E-01
 cg2d: Sum(rhs),rhsMax =   2.60305665911176E-13  5.42852358874517E-01
 cg2d: Sum(rhs),rhsMax =  -2.73892020175026E-13  5.42625864148936E-01
 cg2d: Sum(rhs),rhsMax =   6.59902688049385E-13  5.42399987738529E-01
 cg2d: Sum(rhs),rhsMax =  -7.07767178198537E-15  5.42174644158309E-01
 cg2d: Sum(rhs),rhsMax =  -2.50424680992012E-13  5.41949361228824E-01
 cg2d: Sum(rhs),rhsMax =  -7.90895127167346E-14  5.41724047737979E-01
 cg2d: Sum(rhs),rhsMax =   3.80029341329191E-13  5.41498770809061E-01
 cg2d: Sum(rhs),rhsMax =   4.89608353859694E-14  5.41273303692982E-01
 cg2d: Sum(rhs),rhsMax =   4.75786077203111E-13  5.41047414451530E-01
 cg2d: Sum(rhs),rhsMax =   2.86687340533831E-13  5.40820895152131E-01
 cg2d: Sum(rhs),rhsMax =  -1.11952114245639E-13  5.40593550231442E-01
 cg2d: Sum(rhs),rhsMax =  -6.08596506523895E-13  5.40365190653845E-01
 cg2d: Sum(rhs),rhsMax =  -4.88470375259453E-13  5.40135723413408E-01
 cg2d: Sum(rhs),rhsMax =  -9.12464548363801E-14  5.39904920129431E-01
 cg2d: Sum(rhs),rhsMax =   3.67914032572969E-13  5.39672694011600E-01
 cg2d: Sum(rhs),rhsMax =  -1.03639319348758E-13  5.39438954012934E-01
 cg2d: Sum(rhs),rhsMax =   2.34715025193566E-13  5.39203643954264E-01
 cg2d: Sum(rhs),rhsMax =   1.94483318338712E-13  5.38966728515677E-01
 cg2d: Sum(rhs),rhsMax =  -4.98490138056695E-14  5.38728233766811E-01
 cg2d: Sum(rhs),rhsMax =  -2.37698749572246E-13  5.38488112544079E-01
 cg2d: Sum(rhs),rhsMax =   1.40984446339587E-13  5.38246435493658E-01
 cg2d: Sum(rhs),rhsMax =   1.07303055330021E-13  5.38000487638634E-01
 cg2d: Sum(rhs),rhsMax =   1.80147563533239E-13  5.37753063555377E-01
 cg2d: Sum(rhs),rhsMax =  -1.25122134875255E-13  5.37504369819817E-01
 cg2d: Sum(rhs),rhsMax =   2.27637353411581E-13  5.37254548794116E-01
 cg2d: Sum(rhs),rhsMax =   7.46402939455493E-13  5.37003759265752E-01
 cg2d: Sum(rhs),rhsMax =   8.30169266663461E-14  5.36752217610899E-01
 cg2d: Sum(rhs),rhsMax =   2.58196242164388E-13  5.36500129837464E-01
 cg2d: Sum(rhs),rhsMax =  -3.82555098710213E-13  5.36247684922578E-01
 cg2d: Sum(rhs),rhsMax =   4.20774526332934E-14  5.35995082319630E-01
 cg2d: Sum(rhs),rhsMax =  -2.03823069533371E-13  5.35742508025236E-01
 cg2d: Sum(rhs),rhsMax =  -6.90031365380150E-13  5.35490140163854E-01
 cg2d: Sum(rhs),rhsMax =  -5.43037836919780E-14  5.35238135017788E-01
 cg2d: Sum(rhs),rhsMax =  -4.49765225063459E-13  5.34986629727344E-01
 cg2d: Sum(rhs),rhsMax =  -3.18495230189342E-14  5.34735771878897E-01
 cg2d: Sum(rhs),rhsMax =   2.91475177327527E-13  5.34485608137082E-01
 cg2d: Sum(rhs),rhsMax =  -6.83203493778706E-14  5.34238463941882E-01
 cg2d: Sum(rhs),rhsMax =  -2.30218621943834E-13  5.33992157289105E-01
 cg2d: Sum(rhs),rhsMax =  -3.11112247075584E-13  5.33746669571530E-01
 cg2d: Sum(rhs),rhsMax =  -6.53435638930944E-13  5.33501991748993E-01
 cg2d: Sum(rhs),rhsMax =  -9.71445146547012E-16  5.33258036267479E-01
 cg2d: Sum(rhs),rhsMax =  -5.67240698856608E-13  5.33014757693338E-01
 cg2d: Sum(rhs),rhsMax =  -4.35360081318947E-13  5.32772094549782E-01
 cg2d: Sum(rhs),rhsMax =  -1.86614612651681E-13  5.32529954838069E-01
 cg2d: Sum(rhs),rhsMax =   4.62407889756378E-13  5.32288216956341E-01
 cg2d: Sum(rhs),rhsMax =   1.11605169550444E-13  5.32046747142248E-01
 cg2d: Sum(rhs),rhsMax =  -3.01550451276000E-13  5.31804594510325E-01
 cg2d: Sum(rhs),rhsMax =   2.49383846906426E-14  5.31561876709771E-01
 cg2d: Sum(rhs),rhsMax =  -1.18377530000657E-13  5.31318980966747E-01
 cg2d: Sum(rhs),rhsMax =   3.68871599931708E-14  5.31075757588205E-01
 cg2d: Sum(rhs),rhsMax =  -5.14144282703910E-13  5.30832069873873E-01
 cg2d: Sum(rhs),rhsMax =  -1.00627839394463E-13  5.30587795684651E-01
 cg2d: Sum(rhs),rhsMax =   2.14273043752655E-14  5.30342837427024E-01
 cg2d: Sum(rhs),rhsMax =  -3.70398156590568E-14  5.30097096611941E-01
 cg2d: Sum(rhs),rhsMax =  -3.05311331771918E-14  5.29850518307092E-01
 cg2d: Sum(rhs),rhsMax =  -2.40710229526542E-13  5.29603054063233E-01
 cg2d: Sum(rhs),rhsMax =  -2.42139641670747E-13  5.29354709167324E-01
 cg2d: Sum(rhs),rhsMax =  -2.62012633811537E-13  5.29105491106898E-01
 cg2d: Sum(rhs),rhsMax =   1.65145674912992E-14  5.28855436247390E-01
 cg2d: Sum(rhs),rhsMax =   9.85322934354826E-16  5.28604599324038E-01
 cg2d: Sum(rhs),rhsMax =   2.83106871279415E-15  5.28353077978257E-01
 cg2d: Sum(rhs),rhsMax =   2.91211499359179E-13  5.28100953314612E-01
 cg2d: Sum(rhs),rhsMax =  -5.73846525853128E-14  5.27848352837034E-01
 cg2d: Sum(rhs),rhsMax =   1.56513690896531E-13  5.27595416117001E-01
 cg2d: Sum(rhs),rhsMax =  -6.07985883860351E-14  5.27342312322235E-01
 cg2d: Sum(rhs),rhsMax =  -1.05401798400351E-13  5.27089185012232E-01
 cg2d: Sum(rhs),rhsMax =  -1.50934820197790E-13  5.26836179162277E-01
 cg2d: Sum(rhs),rhsMax =  -1.46577194826136E-13  5.26583490231228E-01
 cg2d: Sum(rhs),rhsMax =   1.94053106916670E-13  5.26331236472116E-01
 cg2d: Sum(rhs),rhsMax =  -1.32296951171895E-13  5.26079551032399E-01
 cg2d: Sum(rhs),rhsMax =   8.70831184940357E-14  5.25828568686390E-01
 cg2d: Sum(rhs),rhsMax =  -1.46327394645596E-13  5.25578410979537E-01
 cg2d: Sum(rhs),rhsMax =  -1.39527278619767E-13  5.25329155127679E-01
 cg2d: Sum(rhs),rhsMax =  -1.35128019884689E-13  5.25080857637705E-01
 cg2d: Sum(rhs),rhsMax =  -1.50934820197790E-13  5.24833569910827E-01
 cg2d: Sum(rhs),rhsMax =  -2.29302687948518E-13  5.24587306669952E-01
 cg2d: Sum(rhs),rhsMax =   2.34520736164257E-13  5.24341865765195E-01
 cg2d: Sum(rhs),rhsMax =   6.31023011621323E-14  5.24097386280141E-01
 cg2d: Sum(rhs),rhsMax =  -2.47787901308527E-13  5.23853782268622E-01
 cg2d: Sum(rhs),rhsMax =  -3.25281468427363E-13  5.23610976542875E-01
 cg2d: Sum(rhs),rhsMax =   6.23529006205104E-14  5.23368884018886E-01
 cg2d: Sum(rhs),rhsMax =   5.75234304633909E-14  5.23127399482589E-01
 cg2d: Sum(rhs),rhsMax =  -1.53294044125118E-13  5.22886391858370E-01
 cg2d: Sum(rhs),rhsMax =  -2.79193335117611E-13  5.22645738355206E-01
 cg2d: Sum(rhs),rhsMax =  -4.26048085699904E-14  5.22405319110085E-01
 cg2d: Sum(rhs),rhsMax =   2.15300000050433E-13  5.22165006510979E-01
 cg2d: Sum(rhs),rhsMax =  -3.06532577099006E-13  5.21924708070692E-01
 cg2d: Sum(rhs),rhsMax =   4.27852198114920E-14  5.21685578324711E-01
 cg2d: Sum(rhs),rhsMax =  -1.23512311489549E-14  5.21445947725250E-01
 cg2d: Sum(rhs),rhsMax =  -4.87471174537291E-13  5.21205325955323E-01
 cg2d: Sum(rhs),rhsMax =  -4.00235400377369E-14  5.20963527769932E-01
 cg2d: Sum(rhs),rhsMax =   4.25617874277862E-13  5.20720430355525E-01
 cg2d: Sum(rhs),rhsMax =  -3.70634078983301E-13  5.20475924268132E-01
 cg2d: Sum(rhs),rhsMax =  -4.30766533554561E-14  5.20229948738206E-01
 cg2d: Sum(rhs),rhsMax =  -6.02781713432421E-13  5.19982478499257E-01
 cg2d: Sum(rhs),rhsMax =   2.42611486456212E-13  5.19733527617764E-01
 cg2d: Sum(rhs),rhsMax =  -1.75179315498042E-13  5.19483144584128E-01
 cg2d: Sum(rhs),rhsMax =  -8.20454815197991E-14  5.19231412684817E-01
 cg2d: Sum(rhs),rhsMax =   1.38555833473220E-13  5.18978456943616E-01
 cg2d: Sum(rhs),rhsMax =  -3.99624777713825E-13  5.18724410493127E-01
 cg2d: Sum(rhs),rhsMax =   3.29264393528206E-13  5.18469449222864E-01
 cg2d: Sum(rhs),rhsMax =   7.88258347483861E-15  5.18213727398925E-01
 cg2d: Sum(rhs),rhsMax =   2.41001663070506E-13  5.17957441284995E-01
 cg2d: Sum(rhs),rhsMax =   1.59178226155632E-14  5.17700669470684E-01
 cg2d: Sum(rhs),rhsMax =   2.00672811700997E-13  5.17444047461547E-01
 cg2d: Sum(rhs),rhsMax =   7.59267648753337E-13  5.17186946834753E-01
 cg2d: Sum(rhs),rhsMax =   1.88252191613003E-13  5.16930554938410E-01
 cg2d: Sum(rhs),rhsMax =  -1.20986554108526E-13  5.16673992897134E-01
 cg2d: Sum(rhs),rhsMax =  -3.07809333577325E-14  5.16418452654142E-01
 cg2d: Sum(rhs),rhsMax =   6.68909372336657E-15  5.16162979562457E-01
 cg2d: Sum(rhs),rhsMax =  -1.70002900645727E-13  5.15904351608442E-01
 cg2d: Sum(rhs),rhsMax =  -6.69603261727048E-14  5.15646229761721E-01
 cg2d: Sum(rhs),rhsMax =  -2.91447421751911E-13  5.15388964861367E-01
 cg2d: Sum(rhs),rhsMax =   3.41116024316079E-14  5.15132520416118E-01
 cg2d: Sum(rhs),rhsMax =  -8.55843174107918E-14  5.14875876057843E-01
 cg2d: Sum(rhs),rhsMax =  -3.67761376907083E-13  5.14620044381236E-01
 cg2d: Sum(rhs),rhsMax =   2.43360886997834E-13  5.14364722643650E-01
 cg2d: Sum(rhs),rhsMax =  -7.48429096475434E-14  5.14109966126923E-01
 cg2d: Sum(rhs),rhsMax =   3.26502713754451E-13  5.13853607876348E-01
 cg2d: Sum(rhs),rhsMax =   8.11295475244833E-14  5.13597479825782E-01
 cg2d: Sum(rhs),rhsMax =  -5.14421838460066E-13  5.13341543437839E-01
 cg2d: Sum(rhs),rhsMax =  -5.37847544279657E-13  5.13085760468709E-01
 cg2d: Sum(rhs),rhsMax =   4.37913594275585E-13  5.12830106655104E-01
 cg2d: Sum(rhs),rhsMax =   1.19002030452009E-13  5.12574538604853E-01
 cg2d: Sum(rhs),rhsMax =  -6.80983047729455E-14  5.12319027192509E-01
 cg2d: Sum(rhs),rhsMax =  -4.83488249436448E-13  5.12063539833297E-01
 cg2d: Sum(rhs),rhsMax =   3.53453377677226E-13  5.11808051594651E-01
 cg2d: Sum(rhs),rhsMax =  -2.31259456029420E-13  5.11552544724664E-01
 cg2d: Sum(rhs),rhsMax =   5.43315392675936E-14  5.11297008616081E-01
 cg2d: Sum(rhs),rhsMax =   2.75335310107039E-13  5.11041634684486E-01
 cg2d: Sum(rhs),rhsMax =  -1.07885922417950E-13  5.10789038912193E-01
 cg2d: Sum(rhs),rhsMax =  -1.78052017574259E-14  5.10536478325664E-01
 cg2d: Sum(rhs),rhsMax =  -2.70658495615805E-13  5.10283918006926E-01
 cg2d: Sum(rhs),rhsMax =  -1.61828883626924E-13  5.10031415810423E-01
 cg2d: Sum(rhs),rhsMax =  -1.57818202950466E-13  5.09779004167985E-01
 cg2d: Sum(rhs),rhsMax =   1.36335387423969E-13  5.09526725594101E-01
 cg2d: Sum(rhs),rhsMax =   1.22749033160119E-13  5.09274617811907E-01
 cg2d: Sum(rhs),rhsMax =  -2.39530617562878E-13  5.09022726942577E-01
 cg2d: Sum(rhs),rhsMax =   1.29091182188290E-13  5.08771108528340E-01
 cg2d: Sum(rhs),rhsMax =  -2.16507367589713E-13  5.08519727447855E-01
 cg2d: Sum(rhs),rhsMax =   1.31616939569312E-13  5.08268626250031E-01
 cg2d: Sum(rhs),rhsMax =   2.71491162884274E-13  5.08017812763248E-01
 cg2d: Sum(rhs),rhsMax =  -1.79495307506272E-13  5.07767308763146E-01
 cg2d: Sum(rhs),rhsMax =   2.62109778326192E-13  5.07517132625312E-01
 cg2d: Sum(rhs),rhsMax =  -2.96582203240803E-13  5.07267268092908E-01
 cg2d: Sum(rhs),rhsMax =  -4.88220575078913E-14  5.07017722713635E-01
 cg2d: Sum(rhs),rhsMax =  -1.00641717182270E-13  5.06768476803912E-01
 cg2d: Sum(rhs),rhsMax =  -8.17818035514506E-14  5.06519520835480E-01
 cg2d: Sum(rhs),rhsMax =  -3.95725119339829E-13  5.06270839060821E-01
 cg2d: Sum(rhs),rhsMax =   3.98292510084275E-15  5.06022398538340E-01
 cg2d: Sum(rhs),rhsMax =  -2.90059642971130E-13  5.05774169237843E-01
 cg2d: Sum(rhs),rhsMax =  -4.80629425148038E-13  5.05526130369740E-01
 cg2d: Sum(rhs),rhsMax =   5.29284949202236E-13  5.05278223429247E-01
 cg2d: Sum(rhs),rhsMax =   1.72653558117020E-13  5.05030419061775E-01
 cg2d: Sum(rhs),rhsMax =  -9.07884878387222E-14  5.04782672618256E-01
 cg2d: Sum(rhs),rhsMax =  -4.94854157651048E-13  5.04534939281878E-01
 cg2d: Sum(rhs),rhsMax =  -2.51659804106907E-13  5.04287183938381E-01
 cg2d: Sum(rhs),rhsMax =  -3.26350058088565E-13  5.04039431773112E-01
 cg2d: Sum(rhs),rhsMax =   6.49494347193524E-13  5.03791606363629E-01
 cg2d: Sum(rhs),rhsMax =  -1.90542026601292E-14  5.03543675758890E-01
 cg2d: Sum(rhs),rhsMax =   7.97278909558941E-14  5.03295638032816E-01
 cg2d: Sum(rhs),rhsMax =   4.89386309254769E-13  5.03047482445436E-01
 cg2d: Sum(rhs),rhsMax =  -2.54241072639161E-14  5.02799211351655E-01
 cg2d: Sum(rhs),rhsMax =   1.47604151123915E-13  5.02550833893526E-01
 cg2d: Sum(rhs),rhsMax =  -2.83759127306382E-13  5.02302369232849E-01
 cg2d: Sum(rhs),rhsMax =   4.03399535997551E-13  5.02053852973346E-01
 cg2d: Sum(rhs),rhsMax =  -3.85635967603548E-13  5.01805173644018E-01
 cg2d: Sum(rhs),rhsMax =   5.30131494258512E-14  5.01556543951853E-01
 cg2d: Sum(rhs),rhsMax =  -6.30051566474776E-15  5.01308016303371E-01
 cg2d: Sum(rhs),rhsMax =   6.86950496486816E-15  5.01059662449996E-01
 cg2d: Sum(rhs),rhsMax =   4.09769440601337E-13  5.00811988019549E-01
 cg2d: Sum(rhs),rhsMax =   1.54556922815630E-13  5.00563971985944E-01
 cg2d: Sum(rhs),rhsMax =   2.03628780504062E-13  5.00316536210130E-01
 cg2d: Sum(rhs),rhsMax =   4.56384929847786E-13  5.00069626746080E-01
 cg2d: Sum(rhs),rhsMax =   1.08607567383956E-13  4.99823203247395E-01
 cg2d: Sum(rhs),rhsMax =   5.47936696015938E-13  4.99577385688871E-01
 cg2d: Sum(rhs),rhsMax =   5.68822766666699E-13  4.99332201485872E-01
 cg2d: Sum(rhs),rhsMax =   2.92113555566687E-13  4.99087698077443E-01
 cg2d: Sum(rhs),rhsMax =  -5.01834684918379E-13  4.98843940095989E-01
 cg2d: Sum(rhs),rhsMax =  -2.31759056390501E-14  4.98600739923847E-01
 cg2d: Sum(rhs),rhsMax =   3.64430707833208E-13  4.98358493473028E-01
 cg2d: Sum(rhs),rhsMax =   3.70994901466304E-13  4.98117285182580E-01
 cg2d: Sum(rhs),rhsMax =   1.30118138486068E-13  4.97876746494813E-01
 cg2d: Sum(rhs),rhsMax =   3.55174223365395E-13  4.97637010982575E-01
 cg2d: Sum(rhs),rhsMax =   1.64479541098217E-13  4.97398072684551E-01
 cg2d: Sum(rhs),rhsMax =  -2.29302687948518E-13  4.97159932017268E-01
 cg2d: Sum(rhs),rhsMax =  -3.01605962427232E-13  4.96922515743816E-01
 cg2d: Sum(rhs),rhsMax =  -3.57311402687799E-13  4.96685786698309E-01
 cg2d: Sum(rhs),rhsMax =  -7.41504080359334E-13  4.96449703450636E-01
 cg2d: Sum(rhs),rhsMax =   7.01660951563099E-14  4.96214210458925E-01
 cg2d: Sum(rhs),rhsMax =   1.25024990360600E-13  4.95978919757110E-01
 cg2d: Sum(rhs),rhsMax =   2.71296873854965E-13  4.95744431173937E-01
 cg2d: Sum(rhs),rhsMax =  -1.59830482182599E-13  4.95510458635689E-01
 cg2d: Sum(rhs),rhsMax =   2.55795384873636E-13  4.95276764443997E-01
 cg2d: Sum(rhs),rhsMax =  -1.80203074684471E-13  4.95043389771787E-01
 cg2d: Sum(rhs),rhsMax =   5.77135561563580E-13  4.94810287900269E-01
 cg2d: Sum(rhs),rhsMax =  -1.04402597678188E-13  4.94577278581395E-01
 cg2d: Sum(rhs),rhsMax =   5.26759191821213E-13  4.94344520013552E-01
 cg2d: Sum(rhs),rhsMax =  -9.25648446781224E-15  4.94112005123391E-01
 cg2d: Sum(rhs),rhsMax =  -3.28181926079196E-13  4.93879734123860E-01
 cg2d: Sum(rhs),rhsMax =   1.98979721588444E-13  4.93647720910488E-01
 cg2d: Sum(rhs),rhsMax =   1.26107457809610E-13  4.93415994452852E-01
 cg2d: Sum(rhs),rhsMax =  -6.35519414871055E-13  4.93184594578375E-01
 cg2d: Sum(rhs),rhsMax =   1.38514200109796E-13  4.92953591044033E-01
 cg2d: Sum(rhs),rhsMax =   6.29912788596698E-14  4.92723056858732E-01
 cg2d: Sum(rhs),rhsMax =  -8.66667848598013E-14  4.92493100855469E-01
 cg2d: Sum(rhs),rhsMax =   1.19348975147204E-14  4.92263804878172E-01
 cg2d: Sum(rhs),rhsMax =  -2.77555756156289E-13  4.92035238518408E-01
 cg2d: Sum(rhs),rhsMax =  -9.85045378598670E-14  4.91802620006145E-01
 cg2d: Sum(rhs),rhsMax =   2.75834910468120E-13  4.91570846069676E-01
 cg2d: Sum(rhs),rhsMax =   8.93313201189017E-14  4.91340219783574E-01
 cg2d: Sum(rhs),rhsMax =   5.19306819768417E-14  4.91110805404030E-01
 cg2d: Sum(rhs),rhsMax =   4.47725190255710E-13  4.90882664503175E-01
 cg2d: Sum(rhs),rhsMax =   2.03656536079677E-13  4.90655916660610E-01
 cg2d: Sum(rhs),rhsMax =   9.40914013369820E-15  4.90431278968831E-01
 cg2d: Sum(rhs),rhsMax =   4.60603777341362E-14  4.90207017903954E-01
 cg2d: Sum(rhs),rhsMax =  -4.48502346372948E-13  4.89985648891462E-01
 cg2d: Sum(rhs),rhsMax =   2.42944553363600E-13  4.89765785982221E-01
 cg2d: Sum(rhs),rhsMax =  -3.18203796645378E-13  4.89547500001580E-01
 cg2d: Sum(rhs),rhsMax =   5.78856407251749E-13  4.89330790848801E-01
 cg2d: Sum(rhs),rhsMax =   3.14887005359310E-13  4.89115605824681E-01
 cg2d: Sum(rhs),rhsMax =   2.66259236880728E-13  4.88901880268183E-01
 cg2d: Sum(rhs),rhsMax =   5.15559817060307E-14  4.88689574513866E-01
 cg2d: Sum(rhs),rhsMax =  -1.09037778805998E-13  4.88478520959952E-01
 cg2d: Sum(rhs),rhsMax =   6.26582119522823E-14  4.88268647694316E-01
 cg2d: Sum(rhs),rhsMax =  -8.39606162372775E-15  4.88059822410871E-01
 cg2d: Sum(rhs),rhsMax =  -2.91267010510410E-13  4.87851912570673E-01
 cg2d: Sum(rhs),rhsMax =  -1.37431732660787E-13  4.87644780391678E-01
 cg2d: Sum(rhs),rhsMax =  -2.37310171513627E-15  4.87438355795087E-01
 cg2d: Sum(rhs),rhsMax =   3.31248917184723E-13  4.87232906176451E-01
 cg2d: Sum(rhs),rhsMax =   3.33691407838899E-13  4.87027799990477E-01
 cg2d: Sum(rhs),rhsMax =   1.35488842367693E-13  4.86822904201370E-01
 cg2d: Sum(rhs),rhsMax =   1.88279947188619E-13  4.86618077631414E-01
 cg2d: Sum(rhs),rhsMax =   5.61981017277446E-13  4.86413608353408E-01
 cg2d: Sum(rhs),rhsMax =   4.90399387764739E-13  4.86209205159596E-01
 cg2d: Sum(rhs),rhsMax =   1.47090672975025E-13  4.86005089337612E-01
 cg2d: Sum(rhs),rhsMax =   4.75092187812720E-13  4.85800729569281E-01
 cg2d: Sum(rhs),rhsMax =   3.29056226711089E-13  4.85596022321440E-01
 cg2d: Sum(rhs),rhsMax =   1.78412840057263E-13  4.85390948003371E-01
 cg2d: Sum(rhs),rhsMax =   2.38156716569904E-13  4.85185522914595E-01
 cg2d: Sum(rhs),rhsMax =  -5.08676434307631E-13  4.84979757297143E-01
 cg2d: Sum(rhs),rhsMax =   2.41209829887623E-13  4.84773723531335E-01
 cg2d: Sum(rhs),rhsMax =   3.82999187920063E-13  4.84567486849833E-01
 cg2d: Sum(rhs),rhsMax =   4.02178290670463E-13  4.84361135143330E-01
 cg2d: Sum(rhs),rhsMax =   3.17593173981834E-13  4.84154756147808E-01
 cg2d: Sum(rhs),rhsMax =   1.07469588783715E-13  4.83948457772679E-01
 cg2d: Sum(rhs),rhsMax =   2.76723088887820E-13  4.83742365341666E-01
 cg2d: Sum(rhs),rhsMax =   7.51926299003003E-13  4.83536569640672E-01
 cg2d: Sum(rhs),rhsMax =  -1.67504898840320E-13  4.83331231871503E-01
 cg2d: Sum(rhs),rhsMax =  -2.06779038336435E-15  4.83126357323881E-01
 cg2d: Sum(rhs),rhsMax =  -4.36331526465494E-13  4.82921754606438E-01
 cg2d: Sum(rhs),rhsMax =   2.24736895759747E-13  4.82718218177104E-01
 cg2d: Sum(rhs),rhsMax =  -2.08638661902683E-13  4.82515713310235E-01
 cg2d: Sum(rhs),rhsMax =   4.74009720363711E-13  4.82314187115689E-01
 cg2d: Sum(rhs),rhsMax =   3.55340756819089E-13  4.82113812930294E-01
 cg2d: Sum(rhs),rhsMax =  -6.21155904489967E-13  4.81914685402275E-01
 cg2d: Sum(rhs),rhsMax =   4.90218976523238E-13  4.81716853838231E-01
 cg2d: Sum(rhs),rhsMax =  -3.35273475648989E-13  4.81520353329167E-01
 cg2d: Sum(rhs),rhsMax =   2.09179895627187E-13  4.81325216330238E-01
 cg2d: Sum(rhs),rhsMax =  -2.98677749199783E-13  4.81131440240369E-01
 cg2d: Sum(rhs),rhsMax =   2.55462317966249E-13  4.80939000406359E-01
 cg2d: Sum(rhs),rhsMax =  -6.93264889939371E-13  4.80747852948665E-01
 cg2d: Sum(rhs),rhsMax =   5.44564393578639E-14  4.80557936492476E-01
 cg2d: Sum(rhs),rhsMax =  -9.36195565515163E-14  4.80369176783311E-01
 cg2d: Sum(rhs),rhsMax =   1.92845739377390E-13  4.80181473562596E-01
 cg2d: Sum(rhs),rhsMax =  -6.03656014064313E-13  4.79994719233166E-01
 cg2d: Sum(rhs),rhsMax =  -4.16500167688127E-13  4.79808808486584E-01
 cg2d: Sum(rhs),rhsMax =   2.22280527317764E-13  4.79623605814083E-01
 cg2d: Sum(rhs),rhsMax =  -5.05429031960603E-13  4.79438995933326E-01
 cg2d: Sum(rhs),rhsMax =  -1.62231339473351E-14  4.79254845577680E-01
 cg2d: Sum(rhs),rhsMax =   4.27810564751496E-13  4.79071025481193E-01
 cg2d: Sum(rhs),rhsMax =  -3.01286773307652E-14  4.78887418986457E-01
 cg2d: Sum(rhs),rhsMax =   2.82690537645180E-13  4.78703908622559E-01
 cg2d: Sum(rhs),rhsMax =  -4.65183447317941E-14  4.78520391464226E-01
 cg2d: Sum(rhs),rhsMax =   3.95780630491060E-13  4.78336755882332E-01
 cg2d: Sum(rhs),rhsMax =  -7.53147544330091E-14  4.78152888172123E-01
 cg2d: Sum(rhs),rhsMax =  -1.88168924886156E-13  4.77968737114904E-01
 cg2d: Sum(rhs),rhsMax =   1.98216443259014E-13  4.77784261260046E-01
 cg2d: Sum(rhs),rhsMax =  -1.80508386016243E-13  4.77599436953047E-01
 cg2d: Sum(rhs),rhsMax =   3.15747428203395E-13  4.77414228671881E-01
 cg2d: Sum(rhs),rhsMax =   1.05887520973624E-13  4.77228536979959E-01
 cg2d: Sum(rhs),rhsMax =  -1.02834407655905E-13  4.77042406566453E-01
 cg2d: Sum(rhs),rhsMax =   1.76247905159244E-14  4.76855755180191E-01
 cg2d: Sum(rhs),rhsMax =   2.45914399954472E-13  4.76668660131946E-01
 cg2d: Sum(rhs),rhsMax =   7.72021335748718E-14  4.76481306786622E-01
 cg2d: Sum(rhs),rhsMax =   4.61825022668449E-13  4.76293801969966E-01
 cg2d: Sum(rhs),rhsMax =  -5.56638068971438E-14  4.76106239327900E-01
 cg2d: Sum(rhs),rhsMax =   1.16573417585641E-13  4.75918729950914E-01
 cg2d: Sum(rhs),rhsMax =  -7.75213226944516E-14  4.75731376177780E-01
 cg2d: Sum(rhs),rhsMax =   1.71251901548430E-14  4.75544297115494E-01
 cg2d: Sum(rhs),rhsMax =  -5.62189184094564E-14  4.75357585645263E-01
 cg2d: Sum(rhs),rhsMax =  -4.45074532784417E-13  4.75171343121160E-01
 cg2d: Sum(rhs),rhsMax =  -1.02959307746175E-13  4.74985664778812E-01
 cg2d: Sum(rhs),rhsMax =   2.48551179637957E-14  4.74800631217084E-01
 cg2d: Sum(rhs),rhsMax =   1.24053545214053E-13  4.74616301835945E-01
 cg2d: Sum(rhs),rhsMax =  -4.37996861002432E-13  4.74432743224903E-01
 cg2d: Sum(rhs),rhsMax =   1.39444011892920E-13  4.74249987279676E-01
 cg2d: Sum(rhs),rhsMax =   1.59566804214251E-13  4.74068060716634E-01
 cg2d: Sum(rhs),rhsMax =  -1.33199007379403E-13  4.73887301683768E-01
 cg2d: Sum(rhs),rhsMax =  -3.06268899130657E-13  4.73706906129265E-01
 cg2d: Sum(rhs),rhsMax =   3.06740743916123E-13  4.73527459327770E-01
 cg2d: Sum(rhs),rhsMax =  -3.56242813026597E-14  4.73348792321356E-01
 cg2d: Sum(rhs),rhsMax =  -2.27942664743352E-13  4.73170714082237E-01
 cg2d: Sum(rhs),rhsMax =   4.06383260376231E-13  4.72980503646608E-01
 cg2d: Sum(rhs),rhsMax =   5.01404473496336E-14  4.72784187893991E-01
 cg2d: Sum(rhs),rhsMax =   3.89258070221388E-13  4.72588529420224E-01
 cg2d: Sum(rhs),rhsMax =  -3.15192316691082E-13  4.72393514222491E-01
 cg2d: Sum(rhs),rhsMax =  -7.84122766717132E-13  4.72199018579291E-01
 cg2d: Sum(rhs),rhsMax =  -9.99478277918797E-14  4.72004955125559E-01
 cg2d: Sum(rhs),rhsMax =   6.26165785888588E-14  4.71811243193057E-01
 cg2d: Sum(rhs),rhsMax =   4.12808676131249E-13  4.71617816346200E-01
 cg2d: Sum(rhs),rhsMax =  -3.35703687071032E-14  4.71424658933188E-01
 cg2d: Sum(rhs),rhsMax =   2.31342722756267E-13  4.71231599284564E-01
 cg2d: Sum(rhs),rhsMax =  -1.88488114005736E-13  4.71038612694167E-01
 cg2d: Sum(rhs),rhsMax =   4.29850599559245E-13  4.70845671741936E-01
 cg2d: Sum(rhs),rhsMax =  -1.92248994501654E-13  4.70652735543197E-01
 cg2d: Sum(rhs),rhsMax =  -3.07767700213901E-13  4.70459782389806E-01
 cg2d: Sum(rhs),rhsMax =  -2.53311260856037E-13  4.70266804112110E-01
 cg2d: Sum(rhs),rhsMax =   3.11320413892702E-13  4.70073783731144E-01
 cg2d: Sum(rhs),rhsMax =   5.21610532544514E-13  4.69880757906926E-01
 cg2d: Sum(rhs),rhsMax =   4.65322225196019E-14  4.69687728018253E-01
 cg2d: Sum(rhs),rhsMax =   7.06240621539678E-14  4.69494715887518E-01
 cg2d: Sum(rhs),rhsMax =   5.14172038279526E-14  4.69301765652207E-01
 cg2d: Sum(rhs),rhsMax =   9.74220704108575E-15  4.69108928141973E-01
 cg2d: Sum(rhs),rhsMax =  -3.06449310372159E-13  4.68916253877076E-01
 cg2d: Sum(rhs),rhsMax =  -6.22585316634172E-13  4.68723804371834E-01
 cg2d: Sum(rhs),rhsMax =   2.03864702896794E-14  4.68531629344003E-01
 cg2d: Sum(rhs),rhsMax =  -1.29452004671293E-13  4.68339821189563E-01
 cg2d: Sum(rhs),rhsMax =   3.52898266164914E-13  4.68148452791346E-01
 cg2d: Sum(rhs),rhsMax =   2.91558444054374E-13  4.67957562672637E-01
 cg2d: Sum(rhs),rhsMax =  -3.23602256102618E-13  4.67767217052511E-01
 cg2d: Sum(rhs),rhsMax =  -2.37865283025940E-13  4.67577476655574E-01
 cg2d: Sum(rhs),rhsMax =  -5.01820807130571E-14  4.67388407609838E-01
 cg2d: Sum(rhs),rhsMax =  -1.80633286106513E-13  4.67200092520608E-01
 cg2d: Sum(rhs),rhsMax =   1.50213175231784E-13  4.67012532109285E-01
 cg2d: Sum(rhs),rhsMax =  -3.68566288599936E-13  4.66825726098611E-01
 cg2d: Sum(rhs),rhsMax =   1.22207799435614E-13  4.66639683209797E-01
 cg2d: Sum(rhs),rhsMax =   1.23095977855314E-13  4.66454382330770E-01
 cg2d: Sum(rhs),rhsMax =  -3.35731442646647E-13  4.66269795805709E-01
 cg2d: Sum(rhs),rhsMax =  -9.35362898246694E-15  4.66085872863119E-01
 cg2d: Sum(rhs),rhsMax =   3.46389583683049E-13  4.65902560030507E-01
 cg2d: Sum(rhs),rhsMax =   2.40890640768043E-13  4.65719755603710E-01
 cg2d: Sum(rhs),rhsMax =  -1.50129908504937E-13  4.65758813435130E-01
 cg2d: Sum(rhs),rhsMax =  -2.04003480774873E-15  4.66453591938081E-01
 cg2d: Sum(rhs),rhsMax =  -3.75713349320961E-13  4.67144773580916E-01
 cg2d: Sum(rhs),rhsMax =   1.83922321816965E-13  4.67832518421378E-01
 cg2d: Sum(rhs),rhsMax =  -1.84657844570779E-13  4.68516297258103E-01
 cg2d: Sum(rhs),rhsMax =   2.15480411291935E-13  4.69196070151450E-01
 cg2d: Sum(rhs),rhsMax =   1.34323108191836E-13  4.69871706200027E-01
 cg2d: Sum(rhs),rhsMax =   2.54657406273395E-14  4.70543057267023E-01
 cg2d: Sum(rhs),rhsMax =  -8.27685142645862E-13  4.71209995221291E-01
 cg2d: Sum(rhs),rhsMax =   4.00512956133525E-14  4.71872406607415E-01
 cg2d: Sum(rhs),rhsMax =   8.18095591270662E-14  4.72530860651262E-01
 cg2d: Sum(rhs),rhsMax =  -4.38898917209940E-13  4.73184374162951E-01
 cg2d: Sum(rhs),rhsMax =  -2.43124964605101E-13  4.73833163459258E-01
 cg2d: Sum(rhs),rhsMax =   2.42569853092789E-13  4.74477190875151E-01
 cg2d: Sum(rhs),rhsMax =   7.10681513638178E-14  4.75116451767839E-01
 cg2d: Sum(rhs),rhsMax =  -3.23366333709885E-13  4.75751296025313E-01
 cg2d: Sum(rhs),rhsMax =   4.80657180723654E-13  4.76380906543737E-01
 cg2d: Sum(rhs),rhsMax =   9.99061944284563E-14  4.77007382635418E-01
 cg2d: Sum(rhs),rhsMax =   3.17204595923215E-13  4.77628613045507E-01
 cg2d: Sum(rhs),rhsMax =   1.08704711898611E-13  4.78245294172538E-01
 cg2d: Sum(rhs),rhsMax =  -4.72885619551278E-13  4.78857588653653E-01
 cg2d: Sum(rhs),rhsMax =  -2.61124455391837E-13  4.79465692287839E-01
 cg2d: Sum(rhs),rhsMax =   6.06667494018609E-13  4.80069731149304E-01
 cg2d: Sum(rhs),rhsMax =   4.06591427193348E-13  4.80669882870644E-01
 cg2d: Sum(rhs),rhsMax =   4.14945855453652E-14  4.81266292018570E-01
 cg2d: Sum(rhs),rhsMax =   2.26887952869959E-13  4.81859117231883E-01
 cg2d: Sum(rhs),rhsMax =   3.95058985525054E-13  4.82448473538764E-01
 cg2d: Sum(rhs),rhsMax =  -1.63272173558937E-13  4.83034492487508E-01
 cg2d: Sum(rhs),rhsMax =   1.87613813373844E-13  4.83617257935228E-01
 cg2d: Sum(rhs),rhsMax =  -1.69295133467529E-13  4.84196856022595E-01
 cg2d: Sum(rhs),rhsMax =  -1.70807812338580E-13  4.84773343181502E-01
 cg2d: Sum(rhs),rhsMax =   2.30010455126717E-13  4.85346769440450E-01
 cg2d: Sum(rhs),rhsMax =   2.66481281485653E-13  4.85916067719092E-01
 cg2d: Sum(rhs),rhsMax =   2.27498575533502E-13  4.86480564814425E-01
 cg2d: Sum(rhs),rhsMax =  -7.43488604015852E-13  4.87039975351538E-01
 cg2d: Sum(rhs),rhsMax =  -6.12801476229663E-13  4.87593964478294E-01
 cg2d: Sum(rhs),rhsMax =   1.18460796727504E-13  4.88142180097721E-01
 cg2d: Sum(rhs),rhsMax =  -1.16573417585641E-14  4.88684279043415E-01
 cg2d: Sum(rhs),rhsMax =  -4.33222901996544E-13  4.89219920648536E-01
 cg2d: Sum(rhs),rhsMax =   1.21430643318376E-14  4.89748814720831E-01
 cg2d: Sum(rhs),rhsMax =  -7.31484317562092E-13  4.90270721520861E-01
 cg2d: Sum(rhs),rhsMax =   2.92960100622963E-13  4.90785327039852E-01
 cg2d: Sum(rhs),rhsMax =  -4.78783679369599E-14  4.91292671752276E-01
 cg2d: Sum(rhs),rhsMax =   2.85577117509206E-13  4.91792725670976E-01
 cg2d: Sum(rhs),rhsMax =  -3.83706955098262E-13  4.92285499077294E-01
 cg2d: Sum(rhs),rhsMax =  -8.50708392619026E-15  4.92771074348526E-01
 cg2d: Sum(rhs),rhsMax =  -3.78724829275257E-13  4.93249579639411E-01
 cg2d: Sum(rhs),rhsMax =  -4.43950431971984E-14  4.93721172266919E-01
 cg2d: Sum(rhs),rhsMax =  -1.47368228731182E-13  4.94185999575032E-01
 cg2d: Sum(rhs),rhsMax =  -2.43527420451528E-13  4.94644271284531E-01
 cg2d: Sum(rhs),rhsMax =   1.05915276549240E-13  4.95096281956893E-01
 cg2d: Sum(rhs),rhsMax =   2.85327317328665E-13  4.95542254838179E-01
 cg2d: Sum(rhs),rhsMax =   2.82648904281757E-13  4.95983183270593E-01
 cg2d: Sum(rhs),rhsMax =  -2.60666488394179E-13  4.96418630922511E-01
 cg2d: Sum(rhs),rhsMax =   4.18137746649450E-14  4.96848686408241E-01
 cg2d: Sum(rhs),rhsMax =  -1.90999993598950E-13  4.97273813086653E-01
 cg2d: Sum(rhs),rhsMax =  -3.29708482738056E-13  4.97694301156255E-01
 cg2d: Sum(rhs),rhsMax =  -3.38395977905748E-13  4.98110497874615E-01
 cg2d: Sum(rhs),rhsMax =  -4.72802352824431E-13  4.98522709242125E-01
 cg2d: Sum(rhs),rhsMax =   1.20611853837715E-13  4.98931010346247E-01
 cg2d: Sum(rhs),rhsMax =  -2.40918396343659E-14  4.99335657317058E-01
 cg2d: Sum(rhs),rhsMax =  -2.35228503342455E-14  4.99736830399623E-01
 cg2d: Sum(rhs),rhsMax =   1.99756877705681E-13  5.00134721644645E-01
 cg2d: Sum(rhs),rhsMax =   1.17655885034651E-13  5.00529541448389E-01
 cg2d: Sum(rhs),rhsMax =  -3.28542748562199E-13  5.00921343602934E-01
 cg2d: Sum(rhs),rhsMax =  -2.44540498961499E-13  5.01310275647448E-01
 cg2d: Sum(rhs),rhsMax =  -3.45071193841306E-13  5.01696432413950E-01
 cg2d: Sum(rhs),rhsMax =   1.03389519168218E-13  5.02079945946808E-01
 cg2d: Sum(rhs),rhsMax =  -2.88102874890228E-14  5.02460802032375E-01
 cg2d: Sum(rhs),rhsMax =  -2.31648034088039E-13  5.02839105065975E-01
 cg2d: Sum(rhs),rhsMax =   3.46569994924550E-13  5.03214909832613E-01
 cg2d: Sum(rhs),rhsMax =   1.23179244582161E-13  5.03588248108436E-01
 cg2d: Sum(rhs),rhsMax =   2.76736966675628E-13  5.03959130406761E-01
 cg2d: Sum(rhs),rhsMax =  -3.21367932265559E-13  5.04327607242557E-01
 cg2d: Sum(rhs),rhsMax =  -1.80966353013901E-14  5.04693669490988E-01
 cg2d: Sum(rhs),rhsMax =   5.39707167845904E-14  5.05057313511551E-01
 cg2d: Sum(rhs),rhsMax =  -4.78742046006175E-13  5.05418653325957E-01
 cg2d: Sum(rhs),rhsMax =  -7.28639371061490E-13  5.05777570886192E-01
 cg2d: Sum(rhs),rhsMax =  -2.59528509793938E-13  5.06133995594063E-01
 cg2d: Sum(rhs),rhsMax =   2.62415089657964E-13  5.06488686125531E-01
 cg2d: Sum(rhs),rhsMax =   4.00415811618871E-13  5.06839553776958E-01
 cg2d: Sum(rhs),rhsMax =  -3.29875016191750E-14  5.07188737905412E-01
 cg2d: Sum(rhs),rhsMax =   4.79075112913563E-13  5.07535037610348E-01
 cg2d: Sum(rhs),rhsMax =  -2.32314167902814E-14  5.07878951708160E-01
 cg2d: Sum(rhs),rhsMax =  -3.59018370588160E-13  5.08219792392831E-01
 cg2d: Sum(rhs),rhsMax =  -1.56569202047763E-13  5.08558094411249E-01
 cg2d: Sum(rhs),rhsMax =  -3.07531777821168E-14  5.08893777556423E-01
 cg2d: Sum(rhs),rhsMax =  -5.88071258356138E-13  5.09226936110189E-01
 cg2d: Sum(rhs),rhsMax =  -1.30312427515378E-14  5.09557557978376E-01
 cg2d: Sum(rhs),rhsMax =   1.98036032017512E-14  5.09885691577464E-01
 cg2d: Sum(rhs),rhsMax =   1.25330301692372E-13  5.10211399612481E-01
 cg2d: Sum(rhs),rhsMax =  -3.65582564221256E-13  5.10534734335011E-01
 cg2d: Sum(rhs),rhsMax =   5.92512150454638E-13  5.10855769768670E-01
 cg2d: Sum(rhs),rhsMax =  -1.67144076357317E-13  5.11174579040217E-01
 cg2d: Sum(rhs),rhsMax =  -1.10689235555128E-13  5.11491251306199E-01
 cg2d: Sum(rhs),rhsMax =   2.44776421354231E-13  5.11805880597570E-01
 cg2d: Sum(rhs),rhsMax =  -4.80851469752963E-13  5.12118561978120E-01
 cg2d: Sum(rhs),rhsMax =  -6.00769434200288E-14  5.12429420290798E-01
 cg2d: Sum(rhs),rhsMax =   9.29811783123569E-16  5.12738546976359E-01
 cg2d: Sum(rhs),rhsMax =  -8.57786064401012E-14  5.13046066189316E-01
 cg2d: Sum(rhs),rhsMax =   1.00877639575003E-13  5.13352083739896E-01
 cg2d: Sum(rhs),rhsMax =   2.51992871014295E-13  5.13656709720271E-01
 cg2d: Sum(rhs),rhsMax =  -5.11951592230275E-13  5.13959889145506E-01
 cg2d: Sum(rhs),rhsMax =  -4.22967216806569E-13  5.14263087332742E-01
 cg2d: Sum(rhs),rhsMax =   1.07594488873985E-13  5.14564864949587E-01
 cg2d: Sum(rhs),rhsMax =   3.90826260243671E-13  5.14865118699561E-01
 cg2d: Sum(rhs),rhsMax =   2.85854673265362E-13  5.15120288387191E-01
 cg2d: Sum(rhs),rhsMax =   2.11428097252053E-13  5.15287771670846E-01
 cg2d: Sum(rhs),rhsMax =  -1.01682551267857E-13  5.15453136867486E-01
 cg2d: Sum(rhs),rhsMax =   1.28702604129671E-13  5.15618762257240E-01
 cg2d: Sum(rhs),rhsMax =  -8.01858579535519E-14  5.15783009104272E-01
 cg2d: Sum(rhs),rhsMax =  -2.68493560717786E-13  5.15947622781553E-01
 cg2d: Sum(rhs),rhsMax =  -2.28525531831281E-13  5.16110938155636E-01
 cg2d: Sum(rhs),rhsMax =  -3.17468273891564E-13  5.16273465654947E-01
 cg2d: Sum(rhs),rhsMax =   2.21225815444370E-13  5.16436490610352E-01
 cg2d: Sum(rhs),rhsMax =  -3.33399974294935E-13  5.16598257300162E-01
 cg2d: Sum(rhs),rhsMax =   1.31561428418081E-13  5.16759179006571E-01
 cg2d: Sum(rhs),rhsMax =   6.10900219299992E-14  5.16919608976516E-01
 cg2d: Sum(rhs),rhsMax =  -5.64132074387658E-14  5.17079450510167E-01
 cg2d: Sum(rhs),rhsMax =  -2.15910622713977E-13  5.17238563128042E-01
 cg2d: Sum(rhs),rhsMax =   6.07111583228459E-13  5.17396783783419E-01
 cg2d: Sum(rhs),rhsMax =   3.55673823726477E-13  5.17553975534286E-01
 cg2d: Sum(rhs),rhsMax =  -1.10744746706359E-14  5.17709995787703E-01
 cg2d: Sum(rhs),rhsMax =   9.83380044061732E-14  5.17864687285992E-01
 cg2d: Sum(rhs),rhsMax =   2.86631829382600E-13  5.17913765068028E-01
 cg2d: Sum(rhs),rhsMax =   4.32195945698766E-13  5.17954144799192E-01
 cg2d: Sum(rhs),rhsMax =   8.89982532115141E-14  5.17993803139313E-01
 cg2d: Sum(rhs),rhsMax =  -1.56805124440496E-13  5.18034051248393E-01
 cg2d: Sum(rhs),rhsMax =  -2.57849297469193E-14  5.18071905268288E-01
 cg2d: Sum(rhs),rhsMax =   2.63261634714240E-14  5.18110826146018E-01
 cg2d: Sum(rhs),rhsMax =   2.62456723021387E-13  5.18147566448971E-01
 cg2d: Sum(rhs),rhsMax =  -6.82925938022549E-14  5.18185195080362E-01
 cg2d: Sum(rhs),rhsMax =  -5.43870504188249E-14  5.18222038696024E-01
 cg2d: Sum(rhs),rhsMax =  -5.39651656694673E-13  5.18258933908126E-01
 cg2d: Sum(rhs),rhsMax =   1.43010603359528E-13  5.18295788478415E-01
 cg2d: Sum(rhs),rhsMax =  -1.94316784885018E-13  5.18324926128709E-01
 cg2d: Sum(rhs),rhsMax =   1.12410081243297E-13  5.18186298817741E-01
 cg2d: Sum(rhs),rhsMax =   6.07125461016267E-13  5.18045053939124E-01
 cg2d: Sum(rhs),rhsMax =  -1.56180623989144E-13  5.17906323167489E-01
 cg2d: Sum(rhs),rhsMax =   3.96210841913103E-14  5.17768142079360E-01
 cg2d: Sum(rhs),rhsMax =  -1.79606329808735E-13  5.17631423985016E-01
 cg2d: Sum(rhs),rhsMax =   1.89806503847478E-13  5.17496350136237E-01
 cg2d: Sum(rhs),rhsMax =   1.43440814781570E-13  5.17363442929136E-01
 cg2d: Sum(rhs),rhsMax =  -1.72473146875518E-13  5.17233411484219E-01
 cg2d: Sum(rhs),rhsMax =   3.09377523599608E-13  5.17106881235919E-01
 cg2d: Sum(rhs),rhsMax =   3.06532577099006E-13  5.16984455798898E-01
 cg2d: Sum(rhs),rhsMax =   2.19893547814820E-13  5.16846343202674E-01
 cg2d: Sum(rhs),rhsMax =  -7.53008766452012E-14  5.16612378436145E-01
 cg2d: Sum(rhs),rhsMax =  -2.08180694905025E-13  5.16384055240461E-01
 cg2d: Sum(rhs),rhsMax =  -3.34191008199980E-13  5.16160744742876E-01
 cg2d: Sum(rhs),rhsMax =   1.11591291762636E-13  5.15940753730278E-01
 cg2d: Sum(rhs),rhsMax =   1.51087475863676E-13  5.15724633959575E-01
 cg2d: Sum(rhs),rhsMax =  -2.84675061301698E-13  5.15512524009930E-01
 cg2d: Sum(rhs),rhsMax =  -5.39776556784943E-13  5.15306423750572E-01
 cg2d: Sum(rhs),rhsMax =  -3.37230243729891E-13  5.15104276396758E-01
 cg2d: Sum(rhs),rhsMax =  -4.97310526093031E-13  5.14905581547977E-01
 cg2d: Sum(rhs),rhsMax =   3.00315328161105E-13  5.14710206875882E-01
 cg2d: Sum(rhs),rhsMax =  -4.51041981541778E-13  5.14517977038631E-01
 cg2d: Sum(rhs),rhsMax =  -3.12957992854024E-13  5.14328662538312E-01
 cg2d: Sum(rhs),rhsMax =  -9.92816939771046E-14  5.14142193518263E-01
 cg2d: Sum(rhs),rhsMax =   3.17953996464837E-13  5.13958726637598E-01
 cg2d: Sum(rhs),rhsMax =   1.03070330048638E-13  5.13778322359252E-01
 cg2d: Sum(rhs),rhsMax =   9.23289222853896E-14  5.13600792089228E-01
 cg2d: Sum(rhs),rhsMax =   2.66495159273461E-13  5.13426792622507E-01
 cg2d: Sum(rhs),rhsMax =   2.46011544469127E-13  5.13257150956197E-01
 cg2d: Sum(rhs),rhsMax =  -3.17246229286638E-14  5.13092706741838E-01
 cg2d: Sum(rhs),rhsMax =  -1.04694031222152E-13  5.12934557967814E-01
 cg2d: Sum(rhs),rhsMax =  -1.67227343084164E-13  5.12782308501577E-01
 cg2d: Sum(rhs),rhsMax =  -1.00572328243231E-13  5.12626958193969E-01
 cg2d: Sum(rhs),rhsMax =  -1.87391768768919E-13  5.12467985221040E-01
 cg2d: Sum(rhs),rhsMax =   6.48786580015326E-14  5.12305538973250E-01
 cg2d: Sum(rhs),rhsMax =   6.32188745797180E-13  5.12139691379632E-01
 cg2d: Sum(rhs),rhsMax =   6.60443921773890E-14  5.11970478754255E-01
 cg2d: Sum(rhs),rhsMax =  -1.17100773522338E-13  5.11798706472605E-01
 cg2d: Sum(rhs),rhsMax =  -1.06428754698129E-13  5.11623575918628E-01
 cg2d: Sum(rhs),rhsMax =  -3.61655150271645E-14  5.11445152184641E-01
 cg2d: Sum(rhs),rhsMax =  -1.73042136175638E-13  5.11261868479717E-01
 cg2d: Sum(rhs),rhsMax =   1.01876840297166E-13  5.11075454507825E-01
 cg2d: Sum(rhs),rhsMax =  -1.93622895494627E-13  5.10887590762773E-01
 cg2d: Sum(rhs),rhsMax =  -3.11570214073242E-13  5.10696426105049E-01
 cg2d: Sum(rhs),rhsMax =  -3.61946583815609E-13  5.10501786169069E-01
 cg2d: Sum(rhs),rhsMax =  -4.22786805565067E-13  5.10303840953296E-01
 cg2d: Sum(rhs),rhsMax =  -1.27245436409851E-13  5.10102820564286E-01
 cg2d: Sum(rhs),rhsMax =  -7.05685510027365E-14  5.09899228286984E-01
 cg2d: Sum(rhs),rhsMax =  -2.24611995669477E-13  5.09692665541919E-01
 cg2d: Sum(rhs),rhsMax =   2.03365102535713E-13  5.09483186346091E-01
 cg2d: Sum(rhs),rhsMax =  -2.23848717340047E-13  5.09270923913676E-01
 cg2d: Sum(rhs),rhsMax =  -3.94698163042051E-13  5.09055929401765E-01
 cg2d: Sum(rhs),rhsMax =   8.99696983580611E-14  5.08838589985017E-01
 cg2d: Sum(rhs),rhsMax =   9.49934575444900E-14  5.08619018254534E-01
 cg2d: Sum(rhs),rhsMax =  -2.19893547814820E-13  5.08397211358783E-01
 cg2d: Sum(rhs),rhsMax =  -3.59573482100473E-13  5.08173165086834E-01
 cg2d: Sum(rhs),rhsMax =  -6.24403306836996E-13  5.07946845597705E-01
 cg2d: Sum(rhs),rhsMax =   1.24206200879939E-14  5.07718197228193E-01
 cg2d: Sum(rhs),rhsMax =  -1.04194430861071E-13  5.07487152972170E-01
 cg2d: Sum(rhs),rhsMax =   2.34284813771524E-13  5.07253632766903E-01
 cg2d: Sum(rhs),rhsMax =  -5.70377078901174E-14  5.07017563640862E-01
 cg2d: Sum(rhs),rhsMax =  -2.59722798823248E-13  5.06778868048116E-01
 cg2d: Sum(rhs),rhsMax =  -1.04291575375726E-13  5.06537476472476E-01
 cg2d: Sum(rhs),rhsMax =  -9.24815779512755E-14  5.06293332506749E-01
 cg2d: Sum(rhs),rhsMax =  -4.14099310397376E-13  5.06046253981876E-01
 cg2d: Sum(rhs),rhsMax =  -4.81420459053084E-14  5.05795971883222E-01
 cg2d: Sum(rhs),rhsMax =   2.79345990783497E-13  5.05542790532075E-01
 cg2d: Sum(rhs),rhsMax =  -4.44089209850063E-14  5.05286726218049E-01
 cg2d: Sum(rhs),rhsMax =  -1.86503590349218E-13  5.05027806727513E-01
 cg2d: Sum(rhs),rhsMax =  -2.18242091065690E-13  5.04766585559135E-01
 cg2d: Sum(rhs),rhsMax =   3.57408547202454E-13  5.04502654666015E-01
 cg2d: Sum(rhs),rhsMax =   3.30624416733372E-13  5.04236127180581E-01
 cg2d: Sum(rhs),rhsMax =  -3.02119440576121E-13  5.03967158466472E-01
 cg2d: Sum(rhs),rhsMax =  -2.97539770599542E-14  5.03695915126567E-01
 cg2d: Sum(rhs),rhsMax =  -2.49966713994354E-13  5.03422625998058E-01
 cg2d: Sum(rhs),rhsMax =  -1.63133395680859E-13  5.03147527465685E-01
 cg2d: Sum(rhs),rhsMax =  -5.40401057236295E-14  5.02870882645918E-01
 cg2d: Sum(rhs),rhsMax =   6.17270123903779E-13  5.02592972463725E-01
 cg2d: Sum(rhs),rhsMax =  -3.71952468825043E-13  5.02314100496506E-01
 cg2d: Sum(rhs),rhsMax =   1.43371425842531E-13  5.02034569458190E-01
 cg2d: Sum(rhs),rhsMax =  -2.14980810930854E-13  5.01754689585979E-01
 cg2d: Sum(rhs),rhsMax =   1.54529167240014E-13  5.01474802068883E-01
 cg2d: Sum(rhs),rhsMax =  -4.27144430936721E-13  5.01195224167949E-01
 cg2d: Sum(rhs),rhsMax =   2.55018228756398E-13  5.00916281948215E-01
 cg2d: Sum(rhs),rhsMax =  -3.06421554796543E-13  5.00638286464508E-01
 cg2d: Sum(rhs),rhsMax =  -4.51305659510126E-13  5.00361522328195E-01
 cg2d: Sum(rhs),rhsMax =  -5.11535258596041E-14  5.00086183676146E-01
 cg2d: Sum(rhs),rhsMax =   4.79616346638068E-14  4.99812512177783E-01
 cg2d: Sum(rhs),rhsMax =   1.18627330181198E-13  4.99540723894433E-01
 cg2d: Sum(rhs),rhsMax =   3.10029779626575E-14  4.99271208722880E-01
 cg2d: Sum(rhs),rhsMax =   1.51031964712445E-13  4.99003897423154E-01
 cg2d: Sum(rhs),rhsMax =  -9.66171587180042E-14  4.98738554437780E-01
 cg2d: Sum(rhs),rhsMax =   4.03538313875629E-13  4.98477423850090E-01
 cg2d: Sum(rhs),rhsMax =  -3.04478664503449E-14  4.98218711937418E-01
 cg2d: Sum(rhs),rhsMax =   4.09242084664641E-13  4.97961086852319E-01
 cg2d: Sum(rhs),rhsMax =   2.72407096879590E-13  4.97705356951717E-01
 cg2d: Sum(rhs),rhsMax =   1.66477942542542E-13  4.97451923396730E-01
 cg2d: Sum(rhs),rhsMax =   3.47472051132058E-13  4.97200749066828E-01
 cg2d: Sum(rhs),rhsMax =   1.87683202312883E-13  4.96951747990921E-01
 cg2d: Sum(rhs),rhsMax =   2.99413271953597E-13  4.96704773328345E-01
 cg2d: Sum(rhs),rhsMax =  -2.77333711551364E-13  4.96462972805776E-01
 cg2d: Sum(rhs),rhsMax =   5.26523269428480E-14  4.96222518894647E-01
 cg2d: Sum(rhs),rhsMax =   2.45678477561739E-13  4.95982879492221E-01
 cg2d: Sum(rhs),rhsMax =  -2.38281616660174E-14  4.95743391590906E-01
 cg2d: Sum(rhs),rhsMax =  -2.67050270785774E-13  4.95503894041991E-01
 cg2d: Sum(rhs),rhsMax =   2.16188178470134E-13  4.95263990254947E-01
 cg2d: Sum(rhs),rhsMax =  -9.55485690568025E-14  4.95023467675509E-01
 cg2d: Sum(rhs),rhsMax =   9.17044218340379E-14  4.94782000587102E-01
 cg2d: Sum(rhs),rhsMax =  -4.01595423582535E-13  4.94539352409065E-01
 cg2d: Sum(rhs),rhsMax =   3.35620420344185E-13  4.94295315916882E-01
 cg2d: Sum(rhs),rhsMax =  -2.05099826011690E-13  4.94049701412440E-01
 cg2d: Sum(rhs),rhsMax =   2.34104402530022E-13  4.93802381350325E-01
 cg2d: Sum(rhs),rhsMax =   2.31606400724615E-13  4.93553270108770E-01
 cg2d: Sum(rhs),rhsMax =  -2.42847408848945E-13  4.93302351537555E-01
 cg2d: Sum(rhs),rhsMax =   6.23556761780719E-13  4.93049648299374E-01
 cg2d: Sum(rhs),rhsMax =  -2.47454834401140E-13  4.92795215916581E-01
 cg2d: Sum(rhs),rhsMax =  -1.61121116448726E-13  4.92539163063263E-01
 cg2d: Sum(rhs),rhsMax =   4.01373378977610E-13  4.92281632682606E-01
 cg2d: Sum(rhs),rhsMax =  -2.81108469835090E-13  4.92022806376019E-01
 cg2d: Sum(rhs),rhsMax =   5.61967139489639E-13  4.91762896177902E-01
 cg2d: Sum(rhs),rhsMax =   2.06543115943703E-13  4.91502135835521E-01
 cg2d: Sum(rhs),rhsMax =  -6.01296790136985E-13  4.91240765346467E-01
 cg2d: Sum(rhs),rhsMax =  -5.58303403508376E-13  4.90979051691196E-01
 cg2d: Sum(rhs),rhsMax =  -3.28445604047545E-13  4.90734381206299E-01
 cg2d: Sum(rhs),rhsMax =  -1.53252410761695E-13  4.90489476363080E-01
 cg2d: Sum(rhs),rhsMax =  -4.30003255225131E-13  4.90244235924425E-01
 cg2d: Sum(rhs),rhsMax =   4.55829818335474E-13  4.90000570437065E-01
 cg2d: Sum(rhs),rhsMax =  -1.52655665885959E-15  4.89757139895677E-01
 cg2d: Sum(rhs),rhsMax =  -2.77763922973406E-13  4.89514092450439E-01
 cg2d: Sum(rhs),rhsMax =   1.47520884397068E-13  4.89271541677957E-01
 cg2d: Sum(rhs),rhsMax =  -3.03312930327593E-13  4.89029648830179E-01
 cg2d: Sum(rhs),rhsMax =   2.19546603119625E-13  4.88788495205539E-01
 cg2d: Sum(rhs),rhsMax =   1.93178806284777E-13  4.88548169606869E-01
 cg2d: Sum(rhs),rhsMax =   2.85299561753050E-13  4.88308728701773E-01
 cg2d: Sum(rhs),rhsMax =  -1.86337056895525E-13  4.88070208652240E-01
 cg2d: Sum(rhs),rhsMax =   6.40182351574481E-14  4.87832618717425E-01
 cg2d: Sum(rhs),rhsMax =   2.80026002386080E-13  4.87595943181545E-01
 cg2d: Sum(rhs),rhsMax =  -5.37264677191729E-13  4.87360146939166E-01
 cg2d: Sum(rhs),rhsMax =  -4.50611770119735E-13  4.87125386751439E-01
 cg2d: Sum(rhs),rhsMax =   1.70724545611733E-13  4.86891082598581E-01
 cg2d: Sum(rhs),rhsMax =  -2.09610107049230E-13  4.86657446323905E-01
 cg2d: Sum(rhs),rhsMax =   1.25496835146066E-13  4.86424383740282E-01
 cg2d: Sum(rhs),rhsMax =  -2.07001082941360E-13  4.86191526202050E-01
 cg2d: Sum(rhs),rhsMax =  -1.69836367192033E-13  4.85959017981123E-01
 cg2d: Sum(rhs),rhsMax =   3.85275145120545E-13  4.85726886379399E-01
 cg2d: Sum(rhs),rhsMax =   1.53904666788662E-13  4.85494764610416E-01
 cg2d: Sum(rhs),rhsMax =   1.20736753927986E-14  4.85262587290711E-01
 cg2d: Sum(rhs),rhsMax =   3.91409127331599E-13  4.85030252791063E-01
 cg2d: Sum(rhs),rhsMax =  -3.37230243729891E-13  4.84797695608668E-01
 cg2d: Sum(rhs),rhsMax =   2.84355872182118E-14  4.84564842971033E-01
 cg2d: Sum(rhs),rhsMax =   7.00273172782317E-14  4.84331594228457E-01
 cg2d: Sum(rhs),rhsMax =  -4.11337630623620E-14  4.84103064953191E-01
 cg2d: Sum(rhs),rhsMax =   4.60242954858359E-13  4.83874245614484E-01
 cg2d: Sum(rhs),rhsMax =   2.01352823303580E-13  4.83644840480398E-01
 cg2d: Sum(rhs),rhsMax =  -1.64077085251790E-13  4.83414882593501E-01
 cg2d: Sum(rhs),rhsMax =  -3.22158966170605E-13  4.83184357011003E-01
 cg2d: Sum(rhs),rhsMax =  -1.04999342553924E-13  4.82953264224121E-01
 cg2d: Sum(rhs),rhsMax =   2.50452436567628E-13  4.82721625874178E-01
 cg2d: Sum(rhs),rhsMax =   2.25153229393982E-13  4.82489497826709E-01
 cg2d: Sum(rhs),rhsMax =  -3.78183595550752E-13  4.82256938868199E-01
 cg2d: Sum(rhs),rhsMax =   5.29118415748542E-13  4.82024026680888E-01
 cg2d: Sum(rhs),rhsMax =  -2.74780198594726E-13  4.81790856129203E-01
 cg2d: Sum(rhs),rhsMax =   5.83560977318598E-14  4.81557523655964E-01
 cg2d: Sum(rhs),rhsMax =   3.05033776015762E-14  4.81324153784848E-01
 cg2d: Sum(rhs),rhsMax =  -2.63164490199586E-13  4.81090839870619E-01
 cg2d: Sum(rhs),rhsMax =  -2.62304067355501E-13  4.80857698979040E-01
 cg2d: Sum(rhs),rhsMax =   9.74498259864731E-14  4.80624859817975E-01
 cg2d: Sum(rhs),rhsMax =   1.10703113342936E-13  4.80392483099405E-01
 cg2d: Sum(rhs),rhsMax =   1.37723166204751E-13  4.80160661189430E-01
 cg2d: Sum(rhs),rhsMax =   1.51323398256409E-13  4.79929470185199E-01
 cg2d: Sum(rhs),rhsMax =  -1.28536070675977E-13  4.79699029840772E-01
 cg2d: Sum(rhs),rhsMax =   3.52259887925754E-13  4.79469310406942E-01
 cg2d: Sum(rhs),rhsMax =  -2.31259456029420E-13  4.79240400333461E-01
 cg2d: Sum(rhs),rhsMax =  -2.78152501032025E-13  4.79012353847875E-01
 cg2d: Sum(rhs),rhsMax =  -1.43357548054723E-13  4.78779204159262E-01
 cg2d: Sum(rhs),rhsMax =   4.88470375259453E-13  4.78543963903694E-01
 cg2d: Sum(rhs),rhsMax =   1.04818931312423E-13  4.78309818838610E-01
 cg2d: Sum(rhs),rhsMax =  -7.36216643204557E-14  4.78076799171938E-01
 cg2d: Sum(rhs),rhsMax =   3.70203867561258E-13  4.77844887004704E-01
 cg2d: Sum(rhs),rhsMax =  -1.19043663815432E-13  4.77614054241002E-01
 cg2d: Sum(rhs),rhsMax =  -3.07462388882129E-13  4.77384246875628E-01
 cg2d: Sum(rhs),rhsMax =  -1.10564335464858E-13  4.77155399385268E-01
 cg2d: Sum(rhs),rhsMax =   4.11698453106624E-13  4.76927431187772E-01
 cg2d: Sum(rhs),rhsMax =  -1.93678406645859E-13  4.76700428581125E-01
 cg2d: Sum(rhs),rhsMax =   3.60822483003176E-16  4.76474129008076E-01
 cg2d: Sum(rhs),rhsMax =   3.21964677141295E-15  4.76248428661625E-01
 cg2d: Sum(rhs),rhsMax =  -1.56846757803919E-13  4.76023229916311E-01
 cg2d: Sum(rhs),rhsMax =  -4.99947305776516E-13  4.75798421021641E-01
 cg2d: Sum(rhs),rhsMax =  -3.24212878766161E-13  4.75573908709042E-01
 cg2d: Sum(rhs),rhsMax =   5.06525377197420E-13  4.75349594530241E-01
 cg2d: Sum(rhs),rhsMax =   6.71684929898220E-14  4.75125419814797E-01
 cg2d: Sum(rhs),rhsMax =  -1.54251611483858E-13  4.74901334898128E-01
 cg2d: Sum(rhs),rhsMax =  -3.90118493065472E-13  4.74677278736369E-01
 cg2d: Sum(rhs),rhsMax =   2.44221309841919E-13  4.74453191812954E-01
 cg2d: Sum(rhs),rhsMax =  -3.66789931760536E-14  4.74229025643242E-01
 cg2d: Sum(rhs),rhsMax =  -4.37705427458468E-14  4.74004738108901E-01
 cg2d: Sum(rhs),rhsMax =  -3.66012775643298E-13  4.73780314933878E-01
 cg2d: Sum(rhs),rhsMax =   1.52919343854307E-13  4.73555738540450E-01
 cg2d: Sum(rhs),rhsMax =   1.24705801241021E-13  4.73330836291377E-01
 cg2d: Sum(rhs),rhsMax =   1.26010313294955E-13  4.73105572824456E-01
 cg2d: Sum(rhs),rhsMax =  -8.34332603005805E-14  4.72879969708484E-01
 cg2d: Sum(rhs),rhsMax =  -3.25503513032288E-13  4.72654140762349E-01
 cg2d: Sum(rhs),rhsMax =  -3.64222541016090E-13  4.72428139026729E-01
 cg2d: Sum(rhs),rhsMax =  -3.00037772404949E-14  4.72202035669666E-01
 cg2d: Sum(rhs),rhsMax =  -4.02344824124157E-13  4.71975927403122E-01
 cg2d: Sum(rhs),rhsMax =   1.59136592792208E-13  4.71749841949012E-01
 cg2d: Sum(rhs),rhsMax =  -2.05516159645924E-13  4.71523837788422E-01
 cg2d: Sum(rhs),rhsMax =  -2.82218692859715E-13  4.71297957833161E-01
 cg2d: Sum(rhs),rhsMax =   2.90698021210289E-13  4.71072250094045E-01
 cg2d: Sum(rhs),rhsMax =  -1.95884974907301E-13  4.70846754420535E-01
 cg2d: Sum(rhs),rhsMax =  -8.48390802055121E-13  4.70621496934180E-01
 cg2d: Sum(rhs),rhsMax =   3.53023166255184E-13  4.70396501595907E-01
 cg2d: Sum(rhs),rhsMax =  -2.85660384236053E-13  4.70171754841902E-01
 cg2d: Sum(rhs),rhsMax =  -5.28174726177610E-13  4.69947205176507E-01
 cg2d: Sum(rhs),rhsMax =  -3.25850457727483E-13  4.69722911562726E-01
 cg2d: Sum(rhs),rhsMax =   4.43700631791444E-13  4.69498738521333E-01
 cg2d: Sum(rhs),rhsMax =   3.35675931495416E-13  4.69274634664669E-01
 cg2d: Sum(rhs),rhsMax =  -1.33559829862406E-13  4.69050548763097E-01
 cg2d: Sum(rhs),rhsMax =  -1.88085658159309E-13  4.68826427304261E-01
 cg2d: Sum(rhs),rhsMax =  -1.56596957623378E-13  4.68602209693210E-01
 cg2d: Sum(rhs),rhsMax =  -3.58005292078190E-13  4.68377873026319E-01
 cg2d: Sum(rhs),rhsMax =  -7.34551308667619E-14  4.68156372390557E-01
 cg2d: Sum(rhs),rhsMax =  -2.95652391457679E-13  4.67929570241184E-01
 cg2d: Sum(rhs),rhsMax =  -3.87467835594180E-14  4.67702025144529E-01
 cg2d: Sum(rhs),rhsMax =  -1.04069530770801E-13  4.67473788836946E-01
 cg2d: Sum(rhs),rhsMax =  -2.18616791336501E-13  4.67244640158629E-01
 cg2d: Sum(rhs),rhsMax =  -3.03507219356902E-14  4.67014470012426E-01
 cg2d: Sum(rhs),rhsMax =  -1.96814786690425E-13  4.66783173380213E-01
 cg2d: Sum(rhs),rhsMax =  -2.64038790831478E-13  4.66550669429286E-01
 cg2d: Sum(rhs),rhsMax =   7.02493618831568E-14  4.66316838731862E-01
 cg2d: Sum(rhs),rhsMax =  -3.15900083869280E-13  4.66081715593853E-01
 cg2d: Sum(rhs),rhsMax =  -2.10803596800702E-14  4.65845311257568E-01
 cg2d: Sum(rhs),rhsMax =   3.43614026121486E-13  4.65607653423046E-01
 cg2d: Sum(rhs),rhsMax =   1.72376002360863E-13  4.65368800380608E-01
 cg2d: Sum(rhs),rhsMax =   2.25944263299027E-13  4.65128814590587E-01
 cg2d: Sum(rhs),rhsMax =   8.60853055506539E-13  4.64887780274594E-01
 cg2d: Sum(rhs),rhsMax =  -7.62584440039404E-14  4.64645844071574E-01
 cg2d: Sum(rhs),rhsMax =   3.39311911901063E-13  4.64403290594952E-01
 cg2d: Sum(rhs),rhsMax =   6.47107367690580E-13  4.64160325710679E-01
 cg2d: Sum(rhs),rhsMax =   4.09366984754911E-13  4.63916823507264E-01
 cg2d: Sum(rhs),rhsMax =   5.43037836919780E-14  4.63673056369013E-01
 cg2d: Sum(rhs),rhsMax =   3.11736747526936E-13  4.63429172367622E-01
 cg2d: Sum(rhs),rhsMax =   1.21819221376995E-13  4.63185325834212E-01
 cg2d: Sum(rhs),rhsMax =  -1.55764290354909E-13  4.62941589533116E-01
 cg2d: Sum(rhs),rhsMax =   2.73878142387218E-13  4.62698104199217E-01
 cg2d: Sum(rhs),rhsMax =  -2.34576247315488E-13  4.62454505212242E-01
 cg2d: Sum(rhs),rhsMax =  -2.03337346960097E-13  4.62112875891637E-01
 cg2d: Sum(rhs),rhsMax =   1.51406664983256E-13  4.61767463008476E-01
 cg2d: Sum(rhs),rhsMax =   3.02508018634740E-13  4.61427547221376E-01
 cg2d: Sum(rhs),rhsMax =  -2.37254660362396E-13  4.61094013633652E-01
 cg2d: Sum(rhs),rhsMax =  -2.55018228756398E-13  4.60761109220143E-01
 cg2d: Sum(rhs),rhsMax =   1.13603570994769E-13  4.60428544617525E-01
 cg2d: Sum(rhs),rhsMax =   2.90226176424824E-13  4.60096618186427E-01
 cg2d: Sum(rhs),rhsMax =   3.75671715957537E-14  4.59765346186881E-01
 cg2d: Sum(rhs),rhsMax =  -2.04766759104302E-13  4.59434721976853E-01
 cg2d: Sum(rhs),rhsMax =  -1.81424320011558E-13  4.59104733953038E-01
 cg2d: Sum(rhs),rhsMax =  -5.81756864903582E-14  4.58775358016710E-01
 cg2d: Sum(rhs),rhsMax =  -1.80508386016243E-13  4.58447042293990E-01
 cg2d: Sum(rhs),rhsMax =   2.66384136970998E-13  4.58118543726011E-01
 cg2d: Sum(rhs),rhsMax =  -8.60422844084496E-14  4.57790753597366E-01
 cg2d: Sum(rhs),rhsMax =  -6.36421471078563E-13  4.57463447932874E-01
 cg2d: Sum(rhs),rhsMax =  -4.33889035811319E-13  4.57136564674859E-01
 cg2d: Sum(rhs),rhsMax =   2.89990254032091E-13  4.56810008412511E-01
 cg2d: Sum(rhs),rhsMax =   3.59060003951583E-13  4.56483737773731E-01
 cg2d: Sum(rhs),rhsMax =  -1.96412330843998E-13  4.56157669934114E-01
 cg2d: Sum(rhs),rhsMax =   2.71324629430580E-13  4.55832193936550E-01
 cg2d: Sum(rhs),rhsMax =  -2.34132158105638E-13  4.55506845709220E-01
 cg2d: Sum(rhs),rhsMax =  -4.62727078875957E-13  4.55181495458624E-01
 cg2d: Sum(rhs),rhsMax =   1.91943683169882E-13  4.54856106310062E-01
 cg2d: Sum(rhs),rhsMax =  -5.35391175837674E-13  4.54530629690615E-01
 cg2d: Sum(rhs),rhsMax =   1.95024552063217E-13  4.54205026460023E-01
 cg2d: Sum(rhs),rhsMax =   1.57096557984460E-14  4.53879265634774E-01
 cg2d: Sum(rhs),rhsMax =   2.94250734889090E-13  4.53895745158936E-01
 cg2d: Sum(rhs),rhsMax =   1.84463555541470E-13  4.54156655307165E-01
 cg2d: Sum(rhs),rhsMax =   2.49453235845465E-13  4.54414023394938E-01
 cg2d: Sum(rhs),rhsMax =  -6.40182351574481E-13  4.54667899051319E-01
 cg2d: Sum(rhs),rhsMax =  -3.55687701514285E-13  4.54918260901352E-01
 cg2d: Sum(rhs),rhsMax =  -7.17106929393196E-13  4.55165108423331E-01
 cg2d: Sum(rhs),rhsMax =  -4.55940840637936E-13  4.55408461360864E-01
 cg2d: Sum(rhs),rhsMax =  -5.81382164632771E-13  4.55648512608980E-01
 cg2d: Sum(rhs),rhsMax =   1.69711467101763E-13  4.55885462870760E-01
 cg2d: Sum(rhs),rhsMax =  -3.43836070726411E-13  4.56119385695290E-01
 cg2d: Sum(rhs),rhsMax =  -5.24358334530461E-13  4.56350570272733E-01
 cg2d: Sum(rhs),rhsMax =   5.83144643684363E-14  4.56579212017395E-01
 cg2d: Sum(rhs),rhsMax =  -4.08131861640015E-13  4.56805609190208E-01
 cg2d: Sum(rhs),rhsMax =   5.82728310050129E-14  4.57030086352799E-01
 cg2d: Sum(rhs),rhsMax =  -1.99104621678714E-13  4.57253227453901E-01
 cg2d: Sum(rhs),rhsMax =  -2.65093502704872E-13  4.57475009600055E-01
 cg2d: Sum(rhs),rhsMax =   7.40726924242097E-13  4.57695687421067E-01
 cg2d: Sum(rhs),rhsMax =   1.14408482687622E-13  4.57915545050514E-01
 cg2d: Sum(rhs),rhsMax =   9.03874197710763E-13  4.58135229418318E-01
 cg2d: Sum(rhs),rhsMax =  -2.51076937018979E-13  4.58354590664560E-01
 cg2d: Sum(rhs),rhsMax =  -2.18255968853498E-13  4.58573804077775E-01
 cg2d: Sum(rhs),rhsMax =  -3.15913961657088E-13  4.58793166808551E-01
 cg2d: Sum(rhs),rhsMax =  -2.02740602084361E-13  4.59012931776850E-01
 cg2d: Sum(rhs),rhsMax =  -1.08815734201073E-13  4.59233278766288E-01
 cg2d: Sum(rhs),rhsMax =   1.40512601554121E-13  4.59455389920943E-01
 cg2d: Sum(rhs),rhsMax =   7.30401850113083E-13  4.59678300841122E-01
 cg2d: Sum(rhs),rhsMax =  -3.47097350861247E-13  4.59902028710850E-01
 cg2d: Sum(rhs),rhsMax =  -3.45543038626772E-13  4.60126385275747E-01
 cg2d: Sum(rhs),rhsMax =  -1.91680005201533E-13  4.60351530494901E-01
 cg2d: Sum(rhs),rhsMax =  -1.27550747741623E-13  4.60577491595769E-01
 cg2d: Sum(rhs),rhsMax =  -2.33049690656628E-13  4.60805186328325E-01
 cg2d: Sum(rhs),rhsMax =   5.24857934891543E-14  4.61034568183707E-01
 cg2d: Sum(rhs),rhsMax =  -4.68791672147972E-14  4.61265504119337E-01
 cg2d: Sum(rhs),rhsMax =  -6.26720897400901E-14  4.61497878980481E-01
 cg2d: Sum(rhs),rhsMax =  -1.92956761679852E-13  4.61731537683865E-01
 cg2d: Sum(rhs),rhsMax =  -3.37091465851813E-14  4.61966322420604E-01
 cg2d: Sum(rhs),rhsMax =   5.26245713672324E-14  4.62202073468945E-01
 cg2d: Sum(rhs),rhsMax =   1.74998904256540E-14  4.62438739525938E-01
 cg2d: Sum(rhs),rhsMax =   6.16173778666962E-14  4.62660140728069E-01
 cg2d: Sum(rhs),rhsMax =  -9.45910016980633E-14  4.62880472304318E-01
 cg2d: Sum(rhs),rhsMax =   1.46688217128599E-14  4.63099959083418E-01
 cg2d: Sum(rhs),rhsMax =  -2.12274642308330E-13  4.63318203588903E-01
 cg2d: Sum(rhs),rhsMax =   2.90920065815214E-13  4.63535577165350E-01
 cg2d: Sum(rhs),rhsMax =   2.94861357552634E-13  4.63751990913073E-01
 cg2d: Sum(rhs),rhsMax =   9.64922586277339E-14  4.63967401718542E-01
 cg2d: Sum(rhs),rhsMax =   1.21985754830689E-13  4.64181868151441E-01
 cg2d: Sum(rhs),rhsMax =   5.86031223548389E-13  4.64395151588193E-01
 cg2d: Sum(rhs),rhsMax =  -3.24615334612588E-13  4.64607459320641E-01
 cg2d: Sum(rhs),rhsMax =   1.22762910947927E-13  4.64818866177105E-01
 cg2d: Sum(rhs),rhsMax =  -5.72514258223578E-13  4.65029244686127E-01
 cg2d: Sum(rhs),rhsMax =   1.88959958791202E-13  4.65238821591399E-01
 cg2d: Sum(rhs),rhsMax =  -2.69492761439949E-13  4.65447758735604E-01
 cg2d: Sum(rhs),rhsMax =   3.24434923371086E-13  4.65656097593613E-01
 cg2d: Sum(rhs),rhsMax =  -8.47655279301307E-14  4.65863796604180E-01
 cg2d: Sum(rhs),rhsMax =  -4.66571226098722E-14  4.66071082777718E-01
 cg2d: Sum(rhs),rhsMax =  -8.03940247706691E-14  4.66278034974375E-01
 cg2d: Sum(rhs),rhsMax =   1.83381088092460E-13  4.66484734882466E-01
 cg2d: Sum(rhs),rhsMax =  -2.44318454356574E-13  4.66691304895531E-01
 cg2d: Sum(rhs),rhsMax =  -1.72153957755938E-13  4.66897727350021E-01
 cg2d: Sum(rhs),rhsMax =   1.42122424939828E-13  4.67104027033274E-01
 cg2d: Sum(rhs),rhsMax =   6.25569041012852E-13  4.67303861912780E-01
 cg2d: Sum(rhs),rhsMax =   4.32126556759727E-13  4.67503411956207E-01
 cg2d: Sum(rhs),rhsMax =   1.11397002733327E-13  4.67702865453319E-01
 cg2d: Sum(rhs),rhsMax =  -4.10435574416113E-13  4.67902007843646E-01
 cg2d: Sum(rhs),rhsMax =   4.24216217709272E-13  4.68100707208874E-01
 cg2d: Sum(rhs),rhsMax =  -4.59451920953313E-13  4.68298726183689E-01
 cg2d: Sum(rhs),rhsMax =   6.68909372336657E-14  4.68495858560806E-01
 cg2d: Sum(rhs),rhsMax =  -2.80470091595930E-14  4.68691900979369E-01
 cg2d: Sum(rhs),rhsMax =  -1.60843560692570E-14  4.68886601628253E-01
 cg2d: Sum(rhs),rhsMax =   3.12250225675825E-15  4.69079790876863E-01
 cg2d: Sum(rhs),rhsMax =   4.20843915271973E-13  4.69272143778889E-01
 cg2d: Sum(rhs),rhsMax =  -1.56138990625720E-13  4.69463784130182E-01
 cg2d: Sum(rhs),rhsMax =   3.30985239216375E-13  4.69654892100683E-01
 cg2d: Sum(rhs),rhsMax =  -1.58623114643319E-13  4.69846250891487E-01
 cg2d: Sum(rhs),rhsMax =   7.99638133486269E-14  4.70038602031012E-01
 cg2d: Sum(rhs),rhsMax =  -1.78884684842728E-13  4.70181382030742E-01
 cg2d: Sum(rhs),rhsMax =  -6.46635522905115E-13  4.70293502993798E-01
 cg2d: Sum(rhs),rhsMax =   2.33937869076328E-13  4.70406624061389E-01
 cg2d: Sum(rhs),rhsMax =  -2.08569272963643E-13  4.70521065699981E-01
 cg2d: Sum(rhs),rhsMax =  -1.66269775725425E-13  4.70636446851174E-01
 cg2d: Sum(rhs),rhsMax =  -8.21565038222616E-14  4.70752481659991E-01
 cg2d: Sum(rhs),rhsMax =   3.60406149368941E-14  4.70869049146035E-01
 cg2d: Sum(rhs),rhsMax =   3.75297015686726E-13  4.70986423120110E-01
 cg2d: Sum(rhs),rhsMax =   1.72403757936479E-13  4.71104453115956E-01
 cg2d: Sum(rhs),rhsMax =   1.27578503317238E-13  4.71230309980942E-01
 cg2d: Sum(rhs),rhsMax =  -3.61932706027801E-13  4.71355897292338E-01
 cg2d: Sum(rhs),rhsMax =   1.55320201145059E-13  4.71480393175748E-01
 cg2d: Sum(rhs),rhsMax =   5.81493186935234E-13  4.71603549822080E-01
 cg2d: Sum(rhs),rhsMax =  -2.01574867908505E-13  4.71725028977942E-01
 cg2d: Sum(rhs),rhsMax =  -6.84868828315643E-14  4.71824201894394E-01
 cg2d: Sum(rhs),rhsMax =   2.09360306868689E-13  4.71920928560135E-01
 cg2d: Sum(rhs),rhsMax =   2.21350715534641E-13  4.72015829621472E-01
 cg2d: Sum(rhs),rhsMax =  -3.53994611401731E-13  4.72108570642677E-01
 cg2d: Sum(rhs),rhsMax =   1.41553435639707E-15  4.72199234285628E-01
 cg2d: Sum(rhs),rhsMax =  -3.72452069186124E-13  4.72287815748605E-01
 cg2d: Sum(rhs),rhsMax =  -2.66384136970998E-13  4.72373969967284E-01
 cg2d: Sum(rhs),rhsMax =  -4.37205827097387E-13  4.72457458085087E-01
 cg2d: Sum(rhs),rhsMax =   2.06140660097276E-13  4.72538291623208E-01
 cg2d: Sum(rhs),rhsMax =  -3.14442916149460E-13  4.72616464900171E-01
 cg2d: Sum(rhs),rhsMax =  -1.16115450587984E-13  4.72692033856927E-01
 cg2d: Sum(rhs),rhsMax =  -4.47197834319013E-13  4.72765064744912E-01
 cg2d: Sum(rhs),rhsMax =   1.56305524079414E-13  4.72835781459810E-01
 cg2d: Sum(rhs),rhsMax =  -7.87425680215392E-14  4.72904147819973E-01
 cg2d: Sum(rhs),rhsMax =  -8.70026273247504E-13  4.72970351510188E-01
 cg2d: Sum(rhs),rhsMax =  -5.61023449918707E-13  4.73034560933960E-01
 cg2d: Sum(rhs),rhsMax =  -2.49897325055315E-13  4.73096973611269E-01
 cg2d: Sum(rhs),rhsMax =   1.47187817489680E-13  4.73157781554783E-01
 cg2d: Sum(rhs),rhsMax =   1.37570510538865E-13  4.73216992204148E-01
 cg2d: Sum(rhs),rhsMax =   3.76892961284625E-13  4.73275041414816E-01
 cg2d: Sum(rhs),rhsMax =   1.85060300417206E-13  4.73332076862325E-01
 cg2d: Sum(rhs),rhsMax =  -2.87145307531489E-13  4.73388263769103E-01
 cg2d: Sum(rhs),rhsMax =  -7.77711228749922E-14  4.73443789782488E-01
 cg2d: Sum(rhs),rhsMax =   6.74738043215939E-14  4.73498798950487E-01
 cg2d: Sum(rhs),rhsMax =  -1.54640189542476E-13  4.73553465466227E-01
 cg2d: Sum(rhs),rhsMax =  -4.17360590532212E-13  4.73607918123419E-01
 cg2d: Sum(rhs),rhsMax =   2.62054267174960E-13  4.73662279805446E-01
 cg2d: Sum(rhs),rhsMax =   6.32688346158261E-14  4.73717245402708E-01
 cg2d: Sum(rhs),rhsMax =   8.77076189453874E-15  4.73772895018705E-01
 cg2d: Sum(rhs),rhsMax =   9.78106484694763E-14  4.73828495551289E-01
 cg2d: Sum(rhs),rhsMax =  -2.90573121120019E-13  4.73884036767637E-01
 cg2d: Sum(rhs),rhsMax =   6.80011602582908E-16  4.73939541435629E-01
 cg2d: Sum(rhs),rhsMax =   3.76462749862583E-13  4.73994980893211E-01
 cg2d: Sum(rhs),rhsMax =   4.75619543749417E-13  4.74050328350641E-01
 cg2d: Sum(rhs),rhsMax =  -4.77395900588817E-14  4.74105564564996E-01
 cg2d: Sum(rhs),rhsMax =   1.87086457437147E-13  4.74160607738784E-01
 cg2d: Sum(rhs),rhsMax =   2.47621367854833E-13  4.74215494306160E-01
 cg2d: Sum(rhs),rhsMax =   1.24664167877597E-13  4.74270045536534E-01
 cg2d: Sum(rhs),rhsMax =   5.42316191953773E-13  4.74324141777938E-01
 cg2d: Sum(rhs),rhsMax =  -1.58886792611668E-13  4.74377670050560E-01
 cg2d: Sum(rhs),rhsMax =   5.52349832538823E-13  4.74430452998194E-01
 cg2d: Sum(rhs),rhsMax =   4.66973681945149E-13  4.74482391037073E-01
 cg2d: Sum(rhs),rhsMax =   1.84935400326935E-13  4.74533303045141E-01
 cg2d: Sum(rhs),rhsMax =   1.88793425337508E-13  4.74583085918378E-01
 cg2d: Sum(rhs),rhsMax =  -2.86173862384942E-13  4.74631519943691E-01
 cg2d: Sum(rhs),rhsMax =  -5.00266494896096E-13  4.74678356580899E-01
 cg2d: Sum(rhs),rhsMax =  -8.77214967331952E-14  4.74723374896786E-01
 cg2d: Sum(rhs),rhsMax =  -6.14869266613027E-13  4.74769985557614E-01
 cg2d: Sum(rhs),rhsMax =   2.61568544601687E-13  4.74814629580255E-01
 cg2d: Sum(rhs),rhsMax =   2.26860197294343E-13  4.74856793245424E-01
 cg2d: Sum(rhs),rhsMax =   5.42413336468428E-13  4.74896819824683E-01
 cg2d: Sum(rhs),rhsMax =   3.09363645811800E-13  4.74934503096676E-01
 cg2d: Sum(rhs),rhsMax =  -7.33302307764916E-14  4.74970366799481E-01
 cg2d: Sum(rhs),rhsMax =   1.50102152929321E-13  4.75004555005708E-01
 cg2d: Sum(rhs),rhsMax =  -1.29618538124987E-14  4.75037183024967E-01
 cg2d: Sum(rhs),rhsMax =   2.88977175522120E-13  4.75066457164752E-01
 cg2d: Sum(rhs),rhsMax =   3.20368731543397E-13  4.75094333453381E-01
 cg2d: Sum(rhs),rhsMax =   3.27612936779076E-13  4.75120987873495E-01
 cg2d: Sum(rhs),rhsMax =  -8.20107870502795E-13  4.75146467191131E-01
 cg2d: Sum(rhs),rhsMax =   1.98022154229704E-13  4.75170830560864E-01
 cg2d: Sum(rhs),rhsMax =  -3.28348459532890E-13  4.75194112223589E-01
 cg2d: Sum(rhs),rhsMax =  -3.63875596320895E-14  4.75216370519279E-01
 cg2d: Sum(rhs),rhsMax =   3.85677600966972E-13  4.75237648813386E-01
 cg2d: Sum(rhs),rhsMax =  -4.17263446017557E-13  4.75257977572122E-01
 cg2d: Sum(rhs),rhsMax =  -2.05946371067967E-13  4.75277629258256E-01
 cg2d: Sum(rhs),rhsMax =   5.47492606806088E-13  4.75297296712421E-01
 cg2d: Sum(rhs),rhsMax =   1.04319330951341E-13  4.75316997580487E-01
 cg2d: Sum(rhs),rhsMax =   3.13249426397988E-13  4.75336725650112E-01
 cg2d: Sum(rhs),rhsMax =   6.15868467335190E-13  4.75356470422142E-01
 cg2d: Sum(rhs),rhsMax =  -3.18051140979492E-13  4.75376206421005E-01
 cg2d: Sum(rhs),rhsMax =  -4.64073224293315E-14  4.75395903354338E-01
 cg2d: Sum(rhs),rhsMax =   4.60062543616857E-13  4.75415524168097E-01
 cg2d: Sum(rhs),rhsMax =   1.41192613156704E-13  4.75435031242948E-01
 cg2d: Sum(rhs),rhsMax =  -3.99041910625897E-13  4.75444420949022E-01
 cg2d: Sum(rhs),rhsMax =   4.88317719593567E-13  4.75452217237061E-01
 cg2d: Sum(rhs),rhsMax =  -8.80684414283905E-14  4.75458769384133E-01
 cg2d: Sum(rhs),rhsMax =  -4.42493264252164E-13  4.75463909804690E-01
 cg2d: Sum(rhs),rhsMax =   8.69443406159576E-14  4.75467639477694E-01
 cg2d: Sum(rhs),rhsMax =   1.38902778168415E-13  4.75470014701311E-01
 cg2d: Sum(rhs),rhsMax =  -2.95360957913715E-13  4.75471456172899E-01
 cg2d: Sum(rhs),rhsMax =  -7.70356001211780E-14  4.75471597604116E-01
 cg2d: Sum(rhs),rhsMax =   2.44818054717655E-13  4.75470367217239E-01
 cg2d: Sum(rhs),rhsMax =   9.40636457613664E-14  4.75467765714633E-01
 cg2d: Sum(rhs),rhsMax =  -1.33087985076941E-13  4.75463793837702E-01
 cg2d: Sum(rhs),rhsMax =   5.38735722699357E-14  4.75458462299403E-01
 cg2d: Sum(rhs),rhsMax =   1.69808611616418E-13  4.75451785695883E-01
 cg2d: Sum(rhs),rhsMax =   4.69110861267552E-13  4.75443258509211E-01
 cg2d: Sum(rhs),rhsMax =   3.50622308964432E-13  4.75433411580428E-01
 cg2d: Sum(rhs),rhsMax =  -1.25330301692372E-13  4.75422325158869E-01
 cg2d: Sum(rhs),rhsMax =   3.17995629828260E-13  4.75409976976424E-01
 cg2d: Sum(rhs),rhsMax =  -2.91780488659299E-13  4.75396362189131E-01
 cg2d: Sum(rhs),rhsMax =  -3.42947892306711E-13  4.75381518816050E-01
 cg2d: Sum(rhs),rhsMax =  -1.59497415275212E-13  4.75365476926059E-01
 cg2d: Sum(rhs),rhsMax =  -1.17766907337113E-13  4.75348259341653E-01
 cg2d: Sum(rhs),rhsMax =  -4.36081726284954E-13  4.75329882081865E-01
 cg2d: Sum(rhs),rhsMax =  -1.89168125608319E-13  4.75310372708658E-01
 cg2d: Sum(rhs),rhsMax =  -7.33857419277228E-14  4.75289751836384E-01
 cg2d: Sum(rhs),rhsMax =  -2.46733189435133E-13  4.75268008358885E-01
 cg2d: Sum(rhs),rhsMax =  -1.37848066295021E-13  4.75245156818189E-01
 cg2d: Sum(rhs),rhsMax =  -1.56541446472147E-14  4.75163170902221E-01
 cg2d: Sum(rhs),rhsMax =   1.08107967022875E-14  4.75057228740076E-01
 cg2d: Sum(rhs),rhsMax =   2.01075267547424E-13  4.74950538147117E-01
 cg2d: Sum(rhs),rhsMax =   3.38368222330132E-13  4.74843233430922E-01
 cg2d: Sum(rhs),rhsMax =  -1.60191304665602E-13  4.74735163393644E-01
 cg2d: Sum(rhs),rhsMax =   3.49623108242270E-13  4.74626371107460E-01
 cg2d: Sum(rhs),rhsMax =   6.98052726733067E-15  4.74516861856648E-01
 cg2d: Sum(rhs),rhsMax =  -6.85146384071800E-14  4.74406636576100E-01
 cg2d: Sum(rhs),rhsMax =   2.68535194081210E-14  4.74300565202559E-01
 cg2d: Sum(rhs),rhsMax =   2.79817835568963E-13  4.74193476801047E-01
 cg2d: Sum(rhs),rhsMax =   6.02767835644613E-13  4.74084868449971E-01
 cg2d: Sum(rhs),rhsMax =  -1.89737114908439E-13  4.73974603580812E-01
 cg2d: Sum(rhs),rhsMax =  -8.50847170497104E-14  4.73862478498913E-01
 cg2d: Sum(rhs),rhsMax =   1.08399400566839E-13  4.73748309995382E-01
 cg2d: Sum(rhs),rhsMax =   2.11775041947249E-14  4.73631487920564E-01
 cg2d: Sum(rhs),rhsMax =   4.84362550068340E-13  4.73512312354236E-01
 cg2d: Sum(rhs),rhsMax =  -4.35221303440869E-13  4.73390665913742E-01
 cg2d: Sum(rhs),rhsMax =  -1.14838694109665E-13  4.73266471065094E-01
 cg2d: Sum(rhs),rhsMax =  -1.90666926691563E-13  4.73139672189712E-01
 cg2d: Sum(rhs),rhsMax =   2.90975576966446E-13  4.73010240956213E-01
 cg2d: Sum(rhs),rhsMax =   3.28626015289046E-13  4.72878171837537E-01
 cg2d: Sum(rhs),rhsMax =  -1.11299858218672E-13  4.72743484203925E-01
 cg2d: Sum(rhs),rhsMax =  -3.28903571045203E-14  4.72606232582498E-01
 cg2d: Sum(rhs),rhsMax =   3.28889693257395E-13  4.72466471460002E-01
 cg2d: Sum(rhs),rhsMax =   5.03777575211473E-13  4.72324327925141E-01
 cg2d: Sum(rhs),rhsMax =   1.24289467606786E-13  4.72179917815689E-01
 cg2d: Sum(rhs),rhsMax =  -3.59878793432244E-13  4.72033091362928E-01
 cg2d: Sum(rhs),rhsMax =  -6.19643225618915E-14  4.71884276361169E-01
 cg2d: Sum(rhs),rhsMax =   3.09891001748497E-14  4.71733528796857E-01
 cg2d: Sum(rhs),rhsMax =   3.03007618995821E-13  4.71580996638653E-01
 cg2d: Sum(rhs),rhsMax =   1.77663439515641E-13  4.71426838516617E-01
 cg2d: Sum(rhs),rhsMax =   1.90264470845136E-13  4.71271221761961E-01
 cg2d: Sum(rhs),rhsMax =  -1.20223275779097E-13  4.71113974522194E-01
 cg2d: Sum(rhs),rhsMax =   8.82072193064687E-14  4.70955731217238E-01
 cg2d: Sum(rhs),rhsMax =  -3.33802430141361E-13  4.70796489497005E-01
 cg2d: Sum(rhs),rhsMax =  -1.26509913656037E-13  4.70636009040608E-01
 cg2d: Sum(rhs),rhsMax =   3.75394160201381E-14  4.70474785211653E-01
 cg2d: Sum(rhs),rhsMax =  -4.08548195274250E-13  4.70312943781620E-01
 cg2d: Sum(rhs),rhsMax =   2.82149303920676E-13  4.70150609234846E-01
 cg2d: Sum(rhs),rhsMax =   3.33968963595055E-13  4.69987888692955E-01
 cg2d: Sum(rhs),rhsMax =  -1.90805704569641E-13  4.69824810438266E-01
 cg2d: Sum(rhs),rhsMax =   3.14775983056848E-13  4.69661608995207E-01
 cg2d: Sum(rhs),rhsMax =   1.26329502414535E-13  4.69498179696856E-01
 cg2d: Sum(rhs),rhsMax =  -4.34652314140749E-14  4.69334629328143E-01
 cg2d: Sum(rhs),rhsMax =  -2.19824158875781E-13  4.69171066453134E-01
 cg2d: Sum(rhs),rhsMax =  -5.06261699229071E-14  4.69007228816209E-01
 cg2d: Sum(rhs),rhsMax =  -5.14130404916102E-13  4.68843372882282E-01
 cg2d: Sum(rhs),rhsMax =  -1.48700496360732E-13  4.68679362129762E-01
 cg2d: Sum(rhs),rhsMax =  -6.80039358158524E-13  4.68515207183473E-01
 cg2d: Sum(rhs),rhsMax =  -9.73665592596262E-14  4.68350900898730E-01
 cg2d: Sum(rhs),rhsMax =   4.27019530846451E-14  4.68186368022472E-01
 cg2d: Sum(rhs),rhsMax =  -1.45855549860130E-14  4.68021560684926E-01
 cg2d: Sum(rhs),rhsMax =   3.27612936779076E-13  4.67856419755485E-01
 cg2d: Sum(rhs),rhsMax =   1.09148801108461E-13  4.67690890093035E-01
 cg2d: Sum(rhs),rhsMax =   1.64174229766445E-13  4.67524903085013E-01
 cg2d: Sum(rhs),rhsMax =   5.59691182289157E-14  4.67358330845111E-01
 cg2d: Sum(rhs),rhsMax =  -1.16170961739215E-13  4.67191189528452E-01
 cg2d: Sum(rhs),rhsMax =  -2.77194933673286E-13  4.67023438298617E-01
 cg2d: Sum(rhs),rhsMax =   2.59972599003788E-13  4.66855038250154E-01
 cg2d: Sum(rhs),rhsMax =  -5.33267874303078E-13  4.66685962576793E-01
 cg2d: Sum(rhs),rhsMax =  -5.82062176235354E-13  4.66516193483698E-01
 cg2d: Sum(rhs),rhsMax =  -7.26446680587856E-13  4.66345690087162E-01
 cg2d: Sum(rhs),rhsMax =   4.62074822848990E-13  4.66174440212663E-01
 cg2d: Sum(rhs),rhsMax =  -6.21724893790088E-13  4.66002480418203E-01
 cg2d: Sum(rhs),rhsMax =  -2.28858598738668E-13  4.65829761688211E-01
 cg2d: Sum(rhs),rhsMax =   5.68989300120393E-14  4.65656289658859E-01
 cg2d: Sum(rhs),rhsMax =  -3.85594334240125E-13  4.65482240381435E-01
 cg2d: Sum(rhs),rhsMax =  -1.13506426480114E-13  4.65307619923189E-01
 cg2d: Sum(rhs),rhsMax =   2.08166817117217E-16  4.65132282513523E-01
 cg2d: Sum(rhs),rhsMax =   1.76317294098283E-13  4.64956270631079E-01
 cg2d: Sum(rhs),rhsMax =  -2.14522843933196E-13  4.64779558891191E-01
 cg2d: Sum(rhs),rhsMax =   5.41788836017076E-14  4.64602223259255E-01
 cg2d: Sum(rhs),rhsMax =   4.39245861905135E-13  4.64424268343950E-01
 cg2d: Sum(rhs),rhsMax =  -5.65381075290361E-14  4.64245743974596E-01
 cg2d: Sum(rhs),rhsMax =  -1.07969189144796E-13  4.64066677989524E-01
 cg2d: Sum(rhs),rhsMax =  -6.59916565837193E-13  4.63887108536419E-01
 cg2d: Sum(rhs),rhsMax =  -8.00887134388972E-14  4.63707067624567E-01
 cg2d: Sum(rhs),rhsMax =   1.15962794922098E-13  4.63526597882792E-01
 cg2d: Sum(rhs),rhsMax =   3.27515792264421E-15  4.63345724364118E-01
 cg2d: Sum(rhs),rhsMax =   4.59993154677818E-13  4.63164475637842E-01
 cg2d: Sum(rhs),rhsMax =  -2.19824158875781E-14  4.62982877712327E-01
 cg2d: Sum(rhs),rhsMax =   1.77011183488673E-13  4.62800904340513E-01
 cg2d: Sum(rhs),rhsMax =  -2.28705943072782E-14  4.62618556139530E-01
 cg2d: Sum(rhs),rhsMax =  -5.02042851735496E-13  4.62435908587323E-01
 cg2d: Sum(rhs),rhsMax =   2.31981100995426E-13  4.62252918126938E-01
 cg2d: Sum(rhs),rhsMax =  -2.36713426637891E-13  4.62069607798436E-01
 cg2d: Sum(rhs),rhsMax =  -1.01224584270199E-13  4.61885916188406E-01
 cg2d: Sum(rhs),rhsMax =  -4.57148208177216E-13  4.61701843377375E-01
 cg2d: Sum(rhs),rhsMax =  -3.52912143952722E-14  4.61517396628849E-01
 cg2d: Sum(rhs),rhsMax =   1.41775480244632E-13  4.61332577453436E-01
 cg2d: Sum(rhs),rhsMax =  -1.08843489776689E-13  4.61147399531535E-01
 cg2d: Sum(rhs),rhsMax =   2.65787392095262E-13  4.60961845967591E-01
 cg2d: Sum(rhs),rhsMax =   2.26207941267376E-15  4.60775929494018E-01
 cg2d: Sum(rhs),rhsMax =   2.26763052779688E-14  4.60589645562537E-01
 cg2d: Sum(rhs),rhsMax =  -3.98292510084275E-15  4.60403001577500E-01
 cg2d: Sum(rhs),rhsMax =   1.30576105483726E-13  4.60215993884169E-01
 cg2d: Sum(rhs),rhsMax =  -6.71226962900562E-13  4.60078213158182E-01
 cg2d: Sum(rhs),rhsMax =  -5.45258282969030E-14  4.60376784880136E-01
 cg2d: Sum(rhs),rhsMax =  -5.22526466539830E-13  4.60675705194378E-01
 cg2d: Sum(rhs),rhsMax =   1.65978342181461E-13  4.60974487666314E-01
 cg2d: Sum(rhs),rhsMax =  -1.42871825481450E-13  4.61272641755772E-01
 cg2d: Sum(rhs),rhsMax =   4.07229805432507E-13  4.61569666489182E-01
 cg2d: Sum(rhs),rhsMax =  -1.77774461818103E-14  4.61865042679588E-01
 cg2d: Sum(rhs),rhsMax =   1.90347737571983E-13  4.62158268545336E-01
 cg2d: Sum(rhs),rhsMax =   2.04211647591990E-13  4.62448865960834E-01
 cg2d: Sum(rhs),rhsMax =  -4.32875957301349E-13  4.62736398555833E-01
 cg2d: Sum(rhs),rhsMax =  -2.99926750102486E-13  4.63020455738405E-01
 cg2d: Sum(rhs),rhsMax =   1.42857947693642E-13  4.63300732951156E-01
 cg2d: Sum(rhs),rhsMax =   2.94556046220862E-13  4.63576945990014E-01
 cg2d: Sum(rhs),rhsMax =  -3.74464348418257E-13  4.63848822417092E-01
 cg2d: Sum(rhs),rhsMax =  -6.09234884763055E-14  4.64116272826957E-01
 cg2d: Sum(rhs),rhsMax =  -1.21916365891650E-13  4.64379283689838E-01
 cg2d: Sum(rhs),rhsMax =   2.38628561355370E-13  4.64637909766904E-01
 cg2d: Sum(rhs),rhsMax =   1.64049329676175E-13  4.64892274916702E-01
 cg2d: Sum(rhs),rhsMax =   1.45397582862472E-13  4.65142599462117E-01
 cg2d: Sum(rhs),rhsMax =   4.90038565281736E-13  4.65389148883058E-01
 cg2d: Sum(rhs),rhsMax =  -3.70870001376034E-13  4.65632254668851E-01
 cg2d: Sum(rhs),rhsMax =  -5.43232125949089E-13  4.65872261104156E-01
 cg2d: Sum(rhs),rhsMax =   3.84858811486311E-13  4.66109586082845E-01
 cg2d: Sum(rhs),rhsMax =  -5.15282261304151E-14  4.66344683578323E-01
 cg2d: Sum(rhs),rhsMax =  -2.50563458870090E-13  4.66578015218356E-01
 cg2d: Sum(rhs),rhsMax =   3.48068796007794E-13  4.66810100707190E-01
 cg2d: Sum(rhs),rhsMax =   4.02830546697430E-13  4.67041437989442E-01
 cg2d: Sum(rhs),rhsMax =  -3.29750116101479E-13  4.67272464351221E-01
 cg2d: Sum(rhs),rhsMax =   2.63969401892439E-13  4.67503603936690E-01
 cg2d: Sum(rhs),rhsMax =  -1.36973765663129E-14  4.67735222754670E-01
 cg2d: Sum(rhs),rhsMax =  -4.47003545289704E-14  4.67967688138361E-01
 cg2d: Sum(rhs),rhsMax =   1.04402597678188E-13  4.68201317787593E-01
 cg2d: Sum(rhs),rhsMax =  -2.88949419946505E-13  4.68436263138637E-01
 cg2d: Sum(rhs),rhsMax =  -2.32022734358850E-13  4.68672671497483E-01
 cg2d: Sum(rhs),rhsMax =   9.63673585374636E-14  4.68910598916107E-01
 cg2d: Sum(rhs),rhsMax =   1.54903867510825E-13  4.69150046910231E-01
 cg2d: Sum(rhs),rhsMax =  -2.70852784645115E-13  4.69390928087502E-01
 cg2d: Sum(rhs),rhsMax =   2.94125834798820E-13  4.69633076490365E-01
 cg2d: Sum(rhs),rhsMax =   3.21465076780214E-13  4.69876245649181E-01
 cg2d: Sum(rhs),rhsMax =   5.43426414978398E-13  4.70120134202223E-01
 cg2d: Sum(rhs),rhsMax =  -4.80684936299269E-13  4.70364388346263E-01
 cg2d: Sum(rhs),rhsMax =   2.91947022112993E-13  4.70608407988622E-01
 cg2d: Sum(rhs),rhsMax =   3.47097350861247E-13  4.70852030566099E-01
 cg2d: Sum(rhs),rhsMax =  -8.16707812489881E-14  4.71094721949647E-01
 cg2d: Sum(rhs),rhsMax =  -4.57134330389408E-14  4.71335987195500E-01
 cg2d: Sum(rhs),rhsMax =  -3.87190279838023E-15  4.71575338136879E-01
 cg2d: Sum(rhs),rhsMax =  -3.14179238181111E-13  4.71812378178621E-01
 cg2d: Sum(rhs),rhsMax =  -1.32518995776820E-13  4.72046701538829E-01
 cg2d: Sum(rhs),rhsMax =   2.91405788388488E-13  4.72277940062232E-01
 cg2d: Sum(rhs),rhsMax =  -2.07889261361061E-14  4.72505789335236E-01
 cg2d: Sum(rhs),rhsMax =  -3.54688500792122E-13  4.72729991417655E-01
 cg2d: Sum(rhs),rhsMax =   1.51351153832024E-13  4.72950368949607E-01
 cg2d: Sum(rhs),rhsMax =  -6.68284871885305E-13  4.73180607545211E-01
 cg2d: Sum(rhs),rhsMax =  -5.11812814352197E-14  4.73406907114130E-01
 cg2d: Sum(rhs),rhsMax =  -9.21762666195036E-14  4.73628729557994E-01
 cg2d: Sum(rhs),rhsMax =   3.79765663360843E-13  4.73846166818223E-01
 cg2d: Sum(rhs),rhsMax =   3.24004711949044E-13  4.74059242208623E-01
 cg2d: Sum(rhs),rhsMax =  -4.44894121542916E-13  4.74268118925337E-01
 cg2d: Sum(rhs),rhsMax =  -5.26481636065057E-13  4.74472963780685E-01
 cg2d: Sum(rhs),rhsMax =  -5.00433028349789E-14  4.74674051196252E-01
 cg2d: Sum(rhs),rhsMax =  -3.13360448700450E-13  4.74871734796688E-01
 cg2d: Sum(rhs),rhsMax =  -1.16684439888104E-13  4.75066271894838E-01
 cg2d: Sum(rhs),rhsMax =   7.64666108210577E-14  4.75257880304226E-01
 cg2d: Sum(rhs),rhsMax =  -1.91513471747840E-13  4.75446980888804E-01
 cg2d: Sum(rhs),rhsMax =   1.49116829994966E-13  4.75633948709310E-01
 cg2d: Sum(rhs),rhsMax =  -8.65696403451466E-14  4.75819211950407E-01
 cg2d: Sum(rhs),rhsMax =  -4.25076640553357E-14  4.76003253106165E-01
 cg2d: Sum(rhs),rhsMax =   2.04669614589648E-13  4.76186411128687E-01
 cg2d: Sum(rhs),rhsMax =  -2.27498575533502E-13  4.76369306239591E-01
 cg2d: Sum(rhs),rhsMax =   6.08110783950622E-13  4.76551904732998E-01
 cg2d: Sum(rhs),rhsMax =   4.54705717523041E-13  4.76734445995135E-01
 cg2d: Sum(rhs),rhsMax =  -5.37056510374612E-13  4.76923540863757E-01
 cg2d: Sum(rhs),rhsMax =   6.01574345893141E-13  4.77112833871625E-01
 cg2d: Sum(rhs),rhsMax =  -4.33333924299006E-13  4.77302323539607E-01
 cg2d: Sum(rhs),rhsMax =  -2.44942954807925E-13  4.77491968175569E-01
 cg2d: Sum(rhs),rhsMax =  -2.24653629032900E-13  4.77681606814919E-01
 cg2d: Sum(rhs),rhsMax =   3.10598768926695E-13  4.77871194770104E-01
 cg2d: Sum(rhs),rhsMax =  -4.50015025243999E-13  4.78060425805710E-01
 cg2d: Sum(rhs),rhsMax =   5.95218319077162E-14  4.78248840646728E-01
 cg2d: Sum(rhs),rhsMax =   1.66103242271731E-13  4.78436416612325E-01
 cg2d: Sum(rhs),rhsMax =   5.07122122073156E-13  4.78622791565844E-01
 cg2d: Sum(rhs),rhsMax =   1.99992800098414E-13  4.78807620685537E-01
 cg2d: Sum(rhs),rhsMax =  -2.18852713729234E-14  4.78990567079520E-01
 cg2d: Sum(rhs),rhsMax =  -1.41955891486134E-13  4.79171291533699E-01
 cg2d: Sum(rhs),rhsMax =   1.32921451623247E-13  4.79349502646359E-01
 cg2d: Sum(rhs),rhsMax =  -4.16472412112512E-14  4.79361831843166E-01
 cg2d: Sum(rhs),rhsMax =  -1.62300728412390E-13  4.79364528857967E-01
 cg2d: Sum(rhs),rhsMax =   4.18415302405606E-14  4.79367744918685E-01
 cg2d: Sum(rhs),rhsMax =  -8.54316617449058E-14  4.79370185844564E-01
 cg2d: Sum(rhs),rhsMax =  -1.25066623724024E-13  4.79372312137491E-01
 cg2d: Sum(rhs),rhsMax =  -2.67605382298086E-13  4.79374248064284E-01
 cg2d: Sum(rhs),rhsMax =   4.44172476576910E-13  4.79376235575347E-01
 cg2d: Sum(rhs),rhsMax =   2.63220001350817E-13  4.79378459118117E-01
 cg2d: Sum(rhs),rhsMax =  -3.33344463143703E-14  4.79381114294866E-01
 cg2d: Sum(rhs),rhsMax =   3.07781578001709E-13  4.79384381465650E-01
 cg2d: Sum(rhs),rhsMax =  -4.70651295714219E-13  4.79388438215416E-01
 cg2d: Sum(rhs),rhsMax =   1.46840872794485E-13  4.79393473594473E-01
 cg2d: Sum(rhs),rhsMax =   2.72323830152743E-13  4.79399641189740E-01
 cg2d: Sum(rhs),rhsMax =  -3.14484549512883E-13  4.79407055948133E-01
 cg2d: Sum(rhs),rhsMax =  -9.13991105022660E-14  4.79415839537933E-01
 cg2d: Sum(rhs),rhsMax =  -3.33719163414514E-13  4.79426104387310E-01
 cg2d: Sum(rhs),rhsMax =  -2.40821251829004E-13  4.79437945061327E-01
 cg2d: Sum(rhs),rhsMax =   7.44390660223360E-13  4.79451379082287E-01
 cg2d: Sum(rhs),rhsMax =   2.58779109252316E-13  4.79466473811209E-01
 cg2d: Sum(rhs),rhsMax =  -4.98143193361500E-13  4.79483209528435E-01
 cg2d: Sum(rhs),rhsMax =   1.35877420426311E-13  4.79501547095276E-01
 cg2d: Sum(rhs),rhsMax =   1.45439216225896E-13  4.79521478433887E-01
 cg2d: Sum(rhs),rhsMax =   3.94795307556706E-13  4.79543032673124E-01
 cg2d: Sum(rhs),rhsMax =  -5.32851540668844E-13  4.79565785102392E-01
 cg2d: Sum(rhs),rhsMax =  -3.38770678176559E-13  4.79589669584646E-01
 cg2d: Sum(rhs),rhsMax =   8.05744360121707E-14  4.79614485910721E-01
 cg2d: Sum(rhs),rhsMax =   1.70863323489812E-13  4.79640014000489E-01
 cg2d: Sum(rhs),rhsMax =   2.06792916124243E-13  4.79665992461959E-01
 cg2d: Sum(rhs),rhsMax =  -4.11323752835813E-13  4.79692151611393E-01
 cg2d: Sum(rhs),rhsMax =   1.44745326835505E-13  4.79718196091637E-01
 cg2d: Sum(rhs),rhsMax =   3.88578058618805E-13  4.79743831670755E-01
 cg2d: Sum(rhs),rhsMax =  -3.48832074337224E-13  4.79768755106857E-01
 cg2d: Sum(rhs),rhsMax =   2.32897034990742E-13  4.79792656585636E-01
 cg2d: Sum(rhs),rhsMax =  -7.56006368618500E-13  4.79815225960675E-01
 cg2d: Sum(rhs),rhsMax =   6.02989880249538E-14  4.79836176639419E-01
 cg2d: Sum(rhs),rhsMax =   2.58473797920544E-13  4.79855238612722E-01
 cg2d: Sum(rhs),rhsMax =   1.79994907867354E-13  4.79872184245509E-01
 cg2d: Sum(rhs),rhsMax =   4.30183666466633E-13  4.79886804939355E-01
 cg2d: Sum(rhs),rhsMax =   1.83492110394923E-13  4.79780332645958E-01
 cg2d: Sum(rhs),rhsMax =  -2.32827646051703E-13  4.79632267793130E-01
 cg2d: Sum(rhs),rhsMax =   8.31695823322320E-14  4.79484239815945E-01
 cg2d: Sum(rhs),rhsMax =  -3.46639383863590E-13  4.79336520934340E-01
 cg2d: Sum(rhs),rhsMax =   1.37112543541207E-14  4.79189451816483E-01
 cg2d: Sum(rhs),rhsMax =  -2.26665908265034E-13  4.79043440934510E-01
 cg2d: Sum(rhs),rhsMax =   3.24670845763819E-13  4.78898910694586E-01
 cg2d: Sum(rhs),rhsMax =   2.69242961259408E-13  4.78756212585130E-01
 cg2d: Sum(rhs),rhsMax =  -1.24067423001861E-14  4.78615677827326E-01
 cg2d: Sum(rhs),rhsMax =   5.03680430696818E-13  4.78477610681174E-01
 cg2d: Sum(rhs),rhsMax =   1.96981320144118E-13  4.78342273906515E-01
 cg2d: Sum(rhs),rhsMax =   2.92488255837497E-13  4.78209879450593E-01
 cg2d: Sum(rhs),rhsMax =  -4.47100689804358E-13  4.78080593588038E-01
 cg2d: Sum(rhs),rhsMax =   2.90129031910169E-13  4.77864287412851E-01
 cg2d: Sum(rhs),rhsMax =   6.90836277073004E-14  4.77640957141189E-01
 cg2d: Sum(rhs),rhsMax =   1.81896164797024E-13  4.77422178080394E-01
 cg2d: Sum(rhs),rhsMax =  -2.97442626084887E-13  4.77207583291319E-01
 cg2d: Sum(rhs),rhsMax =   5.79564174429947E-13  4.76997284304334E-01
 cg2d: Sum(rhs),rhsMax =  -2.04697370165263E-14  4.76791305100593E-01
 cg2d: Sum(rhs),rhsMax =  -3.54979934336086E-13  4.76589602506478E-01
 cg2d: Sum(rhs),rhsMax =  -9.94343496429906E-14  4.76392076808676E-01
 cg2d: Sum(rhs),rhsMax =  -5.97993876638725E-14  4.76198538864041E-01
 cg2d: Sum(rhs),rhsMax =   4.80060435847918E-13  4.76008736198708E-01
 cg2d: Sum(rhs),rhsMax =   2.06487604792471E-13  4.75822360468550E-01
 cg2d: Sum(rhs),rhsMax =  -7.31359417471822E-15  4.75639019932441E-01
 cg2d: Sum(rhs),rhsMax =  -1.62522773017315E-13  4.75458316914273E-01
 cg2d: Sum(rhs),rhsMax =  -1.64757096854373E-13  4.75279775309250E-01
 cg2d: Sum(rhs),rhsMax =   2.68673971959288E-14  4.75102899403277E-01
 cg2d: Sum(rhs),rhsMax =   6.93473056756488E-14  4.74927194451714E-01
 cg2d: Sum(rhs),rhsMax =   1.83103532336304E-13  4.74752153045372E-01
 cg2d: Sum(rhs),rhsMax =   2.82288081798754E-13  4.74577559097454E-01
 cg2d: Sum(rhs),rhsMax =  -1.12798659301916E-13  4.74402432899408E-01
 cg2d: Sum(rhs),rhsMax =   2.48065457064683E-13  4.74226432911543E-01
 cg2d: Sum(rhs),rhsMax =   3.92186283448837E-14  4.74049114527479E-01
 cg2d: Sum(rhs),rhsMax =  -4.21190859967169E-13  4.73870085931103E-01
 cg2d: Sum(rhs),rhsMax =  -4.75827710566534E-13  4.73688975068891E-01
 cg2d: Sum(rhs),rhsMax =   2.04891659194573E-13  4.73505484661790E-01
 cg2d: Sum(rhs),rhsMax =  -2.95499735791793E-13  4.73319363684260E-01
 cg2d: Sum(rhs),rhsMax =   2.19435580817162E-13  4.73130441243912E-01
 cg2d: Sum(rhs),rhsMax =   4.97213381578376E-13  4.72938600045676E-01
 cg2d: Sum(rhs),rhsMax =  -1.47271084216527E-13  4.72743795673786E-01
 cg2d: Sum(rhs),rhsMax =   2.68576827444633E-13  4.72546054710555E-01
 cg2d: Sum(rhs),rhsMax =   2.54088416973275E-13  4.72345487618536E-01
 cg2d: Sum(rhs),rhsMax =  -1.48561718482654E-13  4.72142258823871E-01
 cg2d: Sum(rhs),rhsMax =  -1.55181423266981E-13  4.71936611741614E-01
 cg2d: Sum(rhs),rhsMax =   2.44707032415192E-13  4.71728843960898E-01
 cg2d: Sum(rhs),rhsMax =   5.11132802749614E-13  4.71519313734561E-01
 cg2d: Sum(rhs),rhsMax =  -5.81409920208387E-13  4.71308504014920E-01
 cg2d: Sum(rhs),rhsMax =  -3.86940479657483E-13  4.71096844827166E-01
 cg2d: Sum(rhs),rhsMax =   8.60422844084496E-14  4.70884675840661E-01
 cg2d: Sum(rhs),rhsMax =   2.16826556709293E-13  4.70672593249051E-01
 cg2d: Sum(rhs),rhsMax =   2.52922682797418E-13  4.70461028497901E-01
 cg2d: Sum(rhs),rhsMax =  -2.81899503740135E-13  4.70250507380157E-01
 cg2d: Sum(rhs),rhsMax =  -5.00322006047327E-13  4.70041455731523E-01
 cg2d: Sum(rhs),rhsMax =   2.66620059363731E-13  4.69834337775516E-01
 cg2d: Sum(rhs),rhsMax =  -6.30190344352854E-14  4.69629519053695E-01
 cg2d: Sum(rhs),rhsMax =   5.48047718318401E-13  4.69427376231654E-01
 cg2d: Sum(rhs),rhsMax =   3.14692716330001E-13  4.69228195680794E-01
 cg2d: Sum(rhs),rhsMax =   3.29597460435593E-13  4.69032249648322E-01
 cg2d: Sum(rhs),rhsMax =   4.90316121037893E-13  4.68839695309250E-01
 cg2d: Sum(rhs),rhsMax =   9.39248678832882E-14  4.68650582918035E-01
 cg2d: Sum(rhs),rhsMax =   4.95020691104742E-13  4.68464930867111E-01
 cg2d: Sum(rhs),rhsMax =   3.56159546299750E-13  4.68282662122448E-01
 cg2d: Sum(rhs),rhsMax =   2.41945352641437E-13  4.68103617544758E-01
 cg2d: Sum(rhs),rhsMax =  -2.64677169070637E-13  4.67927589085289E-01
 cg2d: Sum(rhs),rhsMax =  -4.95825602797595E-13  4.67754286617404E-01
 cg2d: Sum(rhs),rhsMax =   4.17638146288368E-13  4.67594296201538E-01
 cg2d: Sum(rhs),rhsMax =  -7.57435780762705E-13  4.67436078634137E-01
 cg2d: Sum(rhs),rhsMax =  -1.50074397353706E-13  4.67279011174055E-01
 cg2d: Sum(rhs),rhsMax =   3.19050341701654E-13  4.67122706480275E-01
 cg2d: Sum(rhs),rhsMax =  -2.57543986137421E-13  4.66966616518734E-01
 cg2d: Sum(rhs),rhsMax =  -1.62758695410048E-13  4.66810296857156E-01
 cg2d: Sum(rhs),rhsMax =  -1.42524880786254E-14  4.66653253339096E-01
 cg2d: Sum(rhs),rhsMax =   9.42718125784836E-14  4.66495016148238E-01
 cg2d: Sum(rhs),rhsMax =   2.53269627492614E-14  4.66335147368641E-01
 cg2d: Sum(rhs),rhsMax =  -3.20882209692286E-13  4.66173257909332E-01
 cg2d: Sum(rhs),rhsMax =   7.46055994760297E-13  4.66009007692278E-01
 cg2d: Sum(rhs),rhsMax =  -6.13120665349243E-13  4.65842105235808E-01
 cg2d: Sum(rhs),rhsMax =   4.55677162669588E-13  4.65672355686111E-01
 cg2d: Sum(rhs),rhsMax =  -3.74922315415915E-13  4.65499618191170E-01
 cg2d: Sum(rhs),rhsMax =  -6.06695249594225E-13  4.65323849833809E-01
 cg2d: Sum(rhs),rhsMax =  -3.42628703187131E-13  4.65145077461240E-01
 cg2d: Sum(rhs),rhsMax =  -1.50018886202474E-14  4.64963395079797E-01
 cg2d: Sum(rhs),rhsMax =   1.66922031752392E-13  4.64778964051852E-01
 cg2d: Sum(rhs),rhsMax =  -1.28508315100362E-13  4.64592054625612E-01
 cg2d: Sum(rhs),rhsMax =  -3.73326369818017E-13  4.64402993485100E-01
 cg2d: Sum(rhs),rhsMax =   2.91433543964104E-16  4.64212171107415E-01
 cg2d: Sum(rhs),rhsMax =   6.47676356990701E-14  4.64020036857670E-01
 cg2d: Sum(rhs),rhsMax =  -5.87280224451092E-13  4.63827115733948E-01
 cg2d: Sum(rhs),rhsMax =  -8.32667268468867E-17  4.63634011368239E-01
 cg2d: Sum(rhs),rhsMax =  -3.44460571177763E-13  4.63441437257123E-01
 cg2d: Sum(rhs),rhsMax =  -4.16985890261401E-13  4.63250284373798E-01
 cg2d: Sum(rhs),rhsMax =   9.49240686054509E-15  4.63061742188789E-01
 cg2d: Sum(rhs),rhsMax =   4.31432667369336E-13  4.62875459010610E-01
 cg2d: Sum(rhs),rhsMax =   1.66908153964584E-13  4.62690684264725E-01
 cg2d: Sum(rhs),rhsMax =   1.43898781779228E-13  4.62507736811504E-01
 cg2d: Sum(rhs),rhsMax =   2.75321432319231E-13  4.62326936757012E-01
 cg2d: Sum(rhs),rhsMax =  -3.22325499624299E-13  4.62148523194477E-01
 cg2d: Sum(rhs),rhsMax =  -1.51226253741754E-13  4.61972686274743E-01
 cg2d: Sum(rhs),rhsMax =  -3.41116024316079E-13  4.61799550830045E-01
 cg2d: Sum(rhs),rhsMax =  -2.37684871784438E-13  4.61629174624061E-01
 cg2d: Sum(rhs),rhsMax =  -5.87307980026708E-14  4.61461533450300E-01
 cg2d: Sum(rhs),rhsMax =  -3.25503513032288E-13  4.61296569395454E-01
 cg2d: Sum(rhs),rhsMax =   5.18807219407336E-13  4.61134125020608E-01
 cg2d: Sum(rhs),rhsMax =  -2.19241291787853E-13  4.60973993408717E-01
 cg2d: Sum(rhs),rhsMax =  -4.03121980241394E-13  4.60815917807380E-01
 cg2d: Sum(rhs),rhsMax =  -7.93809462606987E-15  4.60659875754361E-01
 cg2d: Sum(rhs),rhsMax =  -2.11247686010552E-13  4.60505507884803E-01
 cg2d: Sum(rhs),rhsMax =  -6.67327304526566E-13  4.60352422970131E-01
 cg2d: Sum(rhs),rhsMax =   3.41393580072236E-15  4.60200169095348E-01
 cg2d: Sum(rhs),rhsMax =  -2.50660603384745E-13  4.60048359517662E-01
 cg2d: Sum(rhs),rhsMax =   2.26541008174763E-13  4.59896570534128E-01
 cg2d: Sum(rhs),rhsMax =  -4.95339880224321E-13  4.59744396588229E-01
 cg2d: Sum(rhs),rhsMax =  -4.08534317486442E-13  4.59591492828142E-01
 cg2d: Sum(rhs),rhsMax =  -8.04911692853238E-14  4.59437517547671E-01
 cg2d: Sum(rhs),rhsMax =  -6.43970987646014E-13  4.59282101743680E-01
 cg2d: Sum(rhs),rhsMax =  -3.68455266297474E-14  4.59124990630442E-01
 cg2d: Sum(rhs),rhsMax =  -2.77000644643977E-13  4.58965974704903E-01
 cg2d: Sum(rhs),rhsMax =  -2.69423372500910E-13  4.58804927968011E-01
 cg2d: Sum(rhs),rhsMax =   1.24608656726366E-13  4.58641718539437E-01
 cg2d: Sum(rhs),rhsMax =  -1.83186799063151E-14  4.58477098551491E-01
 cg2d: Sum(rhs),rhsMax =  -4.54358772827845E-13  4.58310009509398E-01
 cg2d: Sum(rhs),rhsMax =  -6.58501031480796E-14  4.58140556730665E-01
 cg2d: Sum(rhs),rhsMax =  -2.72573630333284E-13  4.57968914450872E-01
 cg2d: Sum(rhs),rhsMax =  -1.28619337402824E-13  4.57795287635375E-01
 cg2d: Sum(rhs),rhsMax =  -5.36806710194071E-13  4.57619937309933E-01
 cg2d: Sum(rhs),rhsMax =   2.81025203108243E-13  4.57443166540750E-01
 cg2d: Sum(rhs),rhsMax =  -2.17686979553378E-13  4.57265353959898E-01
 cg2d: Sum(rhs),rhsMax =  -1.32713284806130E-13  4.57086866232162E-01
 cg2d: Sum(rhs),rhsMax =   5.89778226256499E-13  4.56908065034226E-01
 cg2d: Sum(rhs),rhsMax =  -2.63261634714240E-13  4.56729330134285E-01
 cg2d: Sum(rhs),rhsMax =   2.75543476924156E-13  4.56551018372232E-01
 cg2d: Sum(rhs),rhsMax =  -2.47385445462101E-13  4.56373498392038E-01
 cg2d: Sum(rhs),rhsMax =  -4.39509539873484E-14  4.56197093221946E-01
 cg2d: Sum(rhs),rhsMax =   2.27554086684734E-13  4.56022081125194E-01
 cg2d: Sum(rhs),rhsMax =  -9.26897447683928E-14  4.55848698483164E-01
 cg2d: Sum(rhs),rhsMax =   3.03992941930176E-13  4.55677125860872E-01
 cg2d: Sum(rhs),rhsMax =   1.54043444666740E-15  4.55507491696815E-01
 cg2d: Sum(rhs),rhsMax =   2.68951527715444E-14  4.55339875852094E-01
 cg2d: Sum(rhs),rhsMax =  -4.85209095124617E-13  4.55174275218886E-01
 cg2d: Sum(rhs),rhsMax =   8.01719801657441E-14  4.55010656116321E-01
 cg2d: Sum(rhs),rhsMax =   4.23341917077380E-13  4.54848935422337E-01
 cg2d: Sum(rhs),rhsMax =  -7.64666108210577E-14  4.54688933637746E-01
 cg2d: Sum(rhs),rhsMax =   3.00204305858642E-13  4.54530442616078E-01
 cg2d: Sum(rhs),rhsMax =  -1.80411241501588E-13  4.54373261204540E-01
 cg2d: Sum(rhs),rhsMax =   7.95238874751192E-13  4.54217069187799E-01
 cg2d: Sum(rhs),rhsMax =   1.11716191852906E-14  4.54061605904702E-01
 cg2d: Sum(rhs),rhsMax =   2.04697370165263E-13  4.53906468847773E-01
 cg2d: Sum(rhs),rhsMax =  -1.97369898202737E-13  4.53751337852841E-01
 cg2d: Sum(rhs),rhsMax =  -7.10126402125866E-14  4.53595807597531E-01
 cg2d: Sum(rhs),rhsMax =   2.66883737332080E-13  4.53439505084061E-01
 cg2d: Sum(rhs),rhsMax =   2.23293605827735E-14  4.53282082824339E-01
 cg2d: Sum(rhs),rhsMax =  -3.91034427060788E-13  4.53123216990241E-01
 cg2d: Sum(rhs),rhsMax =  -6.15077433430145E-13  4.52962659802275E-01
 cg2d: Sum(rhs),rhsMax =  -7.91380849740619E-13  4.52800135343563E-01
 cg2d: Sum(rhs),rhsMax =   1.80147563533239E-13  4.52635478446580E-01
 cg2d: Sum(rhs),rhsMax =   4.14862588726805E-13  4.52468548468574E-01
 cg2d: Sum(rhs),rhsMax =  -3.40769079620884E-13  4.52299280200085E-01
 cg2d: Sum(rhs),rhsMax =  -3.31679128606766E-15  4.52127664971051E-01
 cg2d: Sum(rhs),rhsMax =  -9.85600490110983E-14  4.51953769311233E-01
 cg2d: Sum(rhs),rhsMax =   3.46528361561127E-14  4.51777717198834E-01
 cg2d: Sum(rhs),rhsMax =  -3.60475538307981E-13  4.51599718329678E-01
 cg2d: Sum(rhs),rhsMax =  -5.16614528933701E-13  4.51419988253802E-01
 cg2d: Sum(rhs),rhsMax =   3.11917158768438E-13  4.51238835116487E-01
 cg2d: Sum(rhs),rhsMax =   4.78700412642752E-13  4.51056583009151E-01
 cg2d: Sum(rhs),rhsMax =  -2.45262143927505E-13  4.50873597283772E-01
 cg2d: Sum(rhs),rhsMax =   5.12173636835200E-13  4.50690264691930E-01
 cg2d: Sum(rhs),rhsMax =  -2.90170665273592E-13  4.50506980945813E-01
 cg2d: Sum(rhs),rhsMax =  -3.02841085542127E-13  4.50324158344873E-01
 cg2d: Sum(rhs),rhsMax =  -3.02050051637082E-13  4.50142181441516E-01
 cg2d: Sum(rhs),rhsMax =  -8.87470652521927E-13  4.49961444931760E-01
 cg2d: Sum(rhs),rhsMax =  -1.22402088464924E-13  4.49782282851384E-01
 cg2d: Sum(rhs),rhsMax =  -6.36990460378684E-15  4.49604992959187E-01
 cg2d: Sum(rhs),rhsMax =  -4.43214909218170E-13  4.49429781601571E-01
 cg2d: Sum(rhs),rhsMax =   6.89726054048379E-15  4.49256839778224E-01
 cg2d: Sum(rhs),rhsMax =  -4.31113478249756E-13  4.49086300883166E-01
 cg2d: Sum(rhs),rhsMax =   2.80331313717852E-14  4.48918243619095E-01
 cg2d: Sum(rhs),rhsMax =   5.16836573538626E-13  4.48752650123543E-01
 cg2d: Sum(rhs),rhsMax =  -1.78662640237803E-13  4.48589497687585E-01
 cg2d: Sum(rhs),rhsMax =   2.62095900538384E-13  4.48428665240276E-01
 cg2d: Sum(rhs),rhsMax =  -3.06199510191618E-13  4.48269983569564E-01
 cg2d: Sum(rhs),rhsMax =  -2.38711828082216E-13  4.48113225634970E-01
 cg2d: Sum(rhs),rhsMax =  -1.61454183356113E-13  4.47958115328702E-01
 cg2d: Sum(rhs),rhsMax =  -6.61054544437434E-13  4.47804332467388E-01
 cg2d: Sum(rhs),rhsMax =   5.92387250364368E-13  4.47651526250956E-01
 cg2d: Sum(rhs),rhsMax =  -3.82222031802826E-13  4.47499337490314E-01
 cg2d: Sum(rhs),rhsMax =   4.52679560503100E-13  4.47346148893919E-01
 cg2d: Sum(rhs),rhsMax =   4.51721993144361E-14  4.47191590117478E-01
 cg2d: Sum(rhs),rhsMax =   4.67403893367191E-14  4.47034941636061E-01
 cg2d: Sum(rhs),rhsMax =   6.06459327201492E-14  4.46877535109759E-01
 cg2d: Sum(rhs),rhsMax =  -1.29937727244567E-13  4.46719122664867E-01
 cg2d: Sum(rhs),rhsMax =   5.03472263879701E-13  4.46559164162354E-01
 cg2d: Sum(rhs),rhsMax =  -1.03084207836446E-13  4.46397514272546E-01
 cg2d: Sum(rhs),rhsMax =  -3.29306026891629E-13  4.46233964803172E-01
 cg2d: Sum(rhs),rhsMax =   1.46688217128599E-14  4.46083851435772E-01
 cg2d: Sum(rhs),rhsMax =   4.54150606010728E-13  4.45931223069239E-01
 cg2d: Sum(rhs),rhsMax =  -2.16368589711635E-13  4.45775560979258E-01
 cg2d: Sum(rhs),rhsMax =  -9.87404602525999E-14  4.45617189322325E-01
 cg2d: Sum(rhs),rhsMax =  -4.76008121808036E-15  4.45456052498387E-01
 cg2d: Sum(rhs),rhsMax =   1.94247395945979E-13  4.45292308097540E-01
 cg2d: Sum(rhs),rhsMax =  -1.51975654283376E-13  4.45126431575905E-01
 cg2d: Sum(rhs),rhsMax =   4.64905891561784E-15  4.44957793800475E-01
 cg2d: Sum(rhs),rhsMax =   8.35581603908508E-14  4.44787781385598E-01
 cg2d: Sum(rhs),rhsMax =  -5.51642065360625E-13  4.44616270995196E-01
 cg2d: Sum(rhs),rhsMax =   3.20715676238592E-13  4.44443711826043E-01
 cg2d: Sum(rhs),rhsMax =  -2.87700419043802E-13  4.44270698269071E-01
 cg2d: Sum(rhs),rhsMax =  -1.08080211447259E-13  4.44097753538278E-01
 cg2d: Sum(rhs),rhsMax =   1.59053326065361E-13  4.43925350315911E-01
 cg2d: Sum(rhs),rhsMax =   1.50560119926979E-13  4.43753987321587E-01
 cg2d: Sum(rhs),rhsMax =   2.79401501934728E-13  4.43584135242858E-01
 cg2d: Sum(rhs),rhsMax =   2.75043876563075E-13  4.43416222631009E-01
 cg2d: Sum(rhs),rhsMax =  -3.14928638722733E-13  4.43250664053308E-01
 cg2d: Sum(rhs),rhsMax =  -3.87009868596522E-13  4.43087794631587E-01
 cg2d: Sum(rhs),rhsMax =   3.32331384633733E-13  4.42927908038279E-01
 cg2d: Sum(rhs),rhsMax =   3.32969762872892E-13  4.42771211970966E-01
 cg2d: Sum(rhs),rhsMax =   1.41525680064092E-13  4.42617659448919E-01
 cg2d: Sum(rhs),rhsMax =   3.77614606250631E-14  4.42467423560133E-01
 cg2d: Sum(rhs),rhsMax =  -3.40560912803767E-13  4.42320673339712E-01
 cg2d: Sum(rhs),rhsMax =  -1.43773881688958E-13  4.42177136268509E-01
 cg2d: Sum(rhs),rhsMax =   4.20635748454856E-14  4.42036718202728E-01
 cg2d: Sum(rhs),rhsMax =  -4.26145230214559E-13  4.41899152163329E-01
 cg2d: Sum(rhs),rhsMax =   2.93362556469390E-13  4.41764150110534E-01
 cg2d: Sum(rhs),rhsMax =  -2.94514412857438E-13  4.41631347408786E-01
 cg2d: Sum(rhs),rhsMax =   2.21891949259145E-13  4.41500346519192E-01
 cg2d: Sum(rhs),rhsMax =  -3.19133608428501E-13  4.41370714967355E-01
 cg2d: Sum(rhs),rhsMax =  -9.74220704108575E-15  4.41241924236044E-01
 cg2d: Sum(rhs),rhsMax =  -1.49977252839051E-13  4.41113445426684E-01
 cg2d: Sum(rhs),rhsMax =  -2.28969621041131E-13  4.40985226111542E-01
 cg2d: Sum(rhs),rhsMax =   5.32768273941997E-14  4.40856347848600E-01
 cg2d: Sum(rhs),rhsMax =  -1.60177426877794E-13  4.40726553763480E-01
 cg2d: Sum(rhs),rhsMax =  -1.56680224350225E-13  4.40595393031574E-01
 cg2d: Sum(rhs),rhsMax =   2.80747647352086E-14  4.40462552154193E-01
 cg2d: Sum(rhs),rhsMax =   1.09731668196389E-13  4.40327725802863E-01
 cg2d: Sum(rhs),rhsMax =   1.62148072746504E-13  4.40190694624134E-01
 cg2d: Sum(rhs),rhsMax =  -2.06432093641240E-13  4.40051302905121E-01
 cg2d: Sum(rhs),rhsMax =  -2.20642948356442E-13  4.39909483451945E-01
 cg2d: Sum(rhs),rhsMax =  -7.77988784506078E-14  4.39765298389159E-01
 cg2d: Sum(rhs),rhsMax =  -4.95700702707325E-13  4.39618732235736E-01
 cg2d: Sum(rhs),rhsMax =  -4.98420749117656E-13  4.39469974910692E-01
 cg2d: Sum(rhs),rhsMax =  -7.61612994892857E-14  4.39319204297398E-01
 cg2d: Sum(rhs),rhsMax =  -2.36241581852425E-13  4.39166634790747E-01
 cg2d: Sum(rhs),rhsMax =   4.04634659112446E-13  4.39012631590257E-01
 cg2d: Sum(rhs),rhsMax =   9.00945984483315E-14  4.38857602258800E-01
 cg2d: Sum(rhs),rhsMax =   2.74252842658029E-13  4.38701999531895E-01
 cg2d: Sum(rhs),rhsMax =  -2.97192825904347E-13  4.38546206257876E-01
 cg2d: Sum(rhs),rhsMax =  -8.32944824225024E-14  4.38390766946261E-01
 cg2d: Sum(rhs),rhsMax =   1.71668235182665E-14  4.38236115221624E-01
 cg2d: Sum(rhs),rhsMax =  -1.97064586870965E-14  4.38082717682750E-01
 cg2d: Sum(rhs),rhsMax =  -2.88324919495153E-13  4.37931001535771E-01
 cg2d: Sum(rhs),rhsMax =  -3.06782377279546E-13  4.37781358712938E-01
 cg2d: Sum(rhs),rhsMax =   2.77444733853827E-13  4.37634327829498E-01
 cg2d: Sum(rhs),rhsMax =  -4.69749239506712E-13  4.37490024083138E-01
 cg2d: Sum(rhs),rhsMax =  -5.02903274579580E-13  4.37348670800089E-01
 cg2d: Sum(rhs),rhsMax =  -1.50796042319712E-13  4.37209996982387E-01
 cg2d: Sum(rhs),rhsMax =  -7.86315457190767E-14  4.37074397015832E-01
 cg2d: Sum(rhs),rhsMax =   9.79633041353623E-14  4.36942317575608E-01
 cg2d: Sum(rhs),rhsMax =  -5.28674326538692E-13  4.36813464950591E-01
 cg2d: Sum(rhs),rhsMax =  -6.08124661738429E-14  4.36687728116044E-01
 cg2d: Sum(rhs),rhsMax =  -7.50233208890450E-14  4.36564903096937E-01
 cg2d: Sum(rhs),rhsMax =  -4.20399826062123E-13  4.36444731700747E-01
 cg2d: Sum(rhs),rhsMax =  -3.27488036688806E-13  4.36326893856708E-01
 cg2d: Sum(rhs),rhsMax =  -4.56246151969708E-13  4.36211025262466E-01
 cg2d: Sum(rhs),rhsMax =  -2.66744959454002E-13  4.36096708680410E-01
 cg2d: Sum(rhs),rhsMax =   1.92582061409041E-13  4.36002504447967E-01
 cg2d: Sum(rhs),rhsMax =   2.41473507855972E-15  4.35908588912635E-01
 cg2d: Sum(rhs),rhsMax =  -3.12208592312402E-13  4.35814179020279E-01
 cg2d: Sum(rhs),rhsMax =   2.44193554266303E-13  4.35718768216508E-01
 cg2d: Sum(rhs),rhsMax =  -4.51208514995471E-13  4.35621741471333E-01
 cg2d: Sum(rhs),rhsMax =   2.85577117509206E-13  4.35522618850613E-01
 cg2d: Sum(rhs),rhsMax =  -2.01255678788925E-13  4.35420967526769E-01
 cg2d: Sum(rhs),rhsMax =   3.85955156723128E-13  4.35316441026225E-01
 cg2d: Sum(rhs),rhsMax =   6.90419943438769E-13  4.35208780864683E-01
 cg2d: Sum(rhs),rhsMax =   2.67841304690819E-15  4.35097794943214E-01
 cg2d: Sum(rhs),rhsMax =  -2.92182944505726E-13  4.34983414209355E-01
 cg2d: Sum(rhs),rhsMax =   3.20785065177631E-13  4.34865653015527E-01
 cg2d: Sum(rhs),rhsMax =  -4.40009140234565E-13  4.34744616793523E-01
 cg2d: Sum(rhs),rhsMax =  -2.10984008042203E-13  4.34620507111677E-01
 cg2d: Sum(rhs),rhsMax =  -3.13027381793063E-13  4.34493590579003E-01
 cg2d: Sum(rhs),rhsMax =  -2.57946441983847E-13  4.34364219004849E-01
 cg2d: Sum(rhs),rhsMax =  -1.73888681231915E-13  4.34232787686198E-01
 cg2d: Sum(rhs),rhsMax =   3.47777362463830E-13  4.34099748473536E-01
 cg2d: Sum(rhs),rhsMax =  -1.18668963544621E-13  4.33965607243765E-01
 cg2d: Sum(rhs),rhsMax =   4.11476408501699E-13  4.33830875281605E-01
 cg2d: Sum(rhs),rhsMax =   2.91738855295876E-13  4.33696066734171E-01
 cg2d: Sum(rhs),rhsMax =  -1.69794733828610E-13  4.33561692374526E-01
 cg2d: Sum(rhs),rhsMax =   8.12822031903693E-14  4.33428268423246E-01
 cg2d: Sum(rhs),rhsMax =  -5.91041104947010E-13  4.33296270047746E-01
 cg2d: Sum(rhs),rhsMax =  -1.85379489536786E-13  4.33166143335885E-01
 cg2d: Sum(rhs),rhsMax =   5.72181191316190E-14  4.33038274591978E-01
 cg2d: Sum(rhs),rhsMax =  -5.46618306174196E-13  4.32912993577382E-01
 cg2d: Sum(rhs),rhsMax =   1.97994398654089E-13  4.32767648616123E-01
 cg2d: Sum(rhs),rhsMax =   2.37851405238132E-13  4.32582346315494E-01
 cg2d: Sum(rhs),rhsMax =   3.64014374198973E-14  4.32398305298698E-01
 cg2d: Sum(rhs),rhsMax =  -1.13520304267922E-14  4.32218581522961E-01
 cg2d: Sum(rhs),rhsMax =  -3.86676801689134E-13  4.32042878325605E-01
 cg2d: Sum(rhs),rhsMax =  -1.50435219836709E-14  4.31871205714291E-01
 cg2d: Sum(rhs),rhsMax =   7.18800019505750E-13  4.31703337250630E-01
 cg2d: Sum(rhs),rhsMax =   2.74502642838570E-14  4.31539459734415E-01
 cg2d: Sum(rhs),rhsMax =  -7.18869408444789E-15  4.31377869045624E-01
 cg2d: Sum(rhs),rhsMax =   2.88796764280619E-13  4.31219599905893E-01
 cg2d: Sum(rhs),rhsMax =  -8.97892871165595E-15  4.31063543417057E-01
 cg2d: Sum(rhs),rhsMax =  -1.57512891618694E-13  4.30909277301753E-01
 cg2d: Sum(rhs),rhsMax =  -4.05078748322296E-13  4.30756294384325E-01
 cg2d: Sum(rhs),rhsMax =  -2.18852713729234E-13  4.30604066586296E-01
 cg2d: Sum(rhs),rhsMax =  -1.63896674010289E-14  4.30452062734865E-01
 cg2d: Sum(rhs),rhsMax =  -1.53835277849623E-13  4.30298342189986E-01
 cg2d: Sum(rhs),rhsMax =   7.10126402125866E-14  4.30143972982719E-01
 cg2d: Sum(rhs),rhsMax =   4.72261119099926E-14  4.29988555917592E-01
 cg2d: Sum(rhs),rhsMax =   9.71306368668934E-14  4.29831758023024E-01
 cg2d: Sum(rhs),rhsMax =   3.27474158900998E-13  4.29673301556695E-01
 cg2d: Sum(rhs),rhsMax =  -1.38708489139105E-13  4.29512982182125E-01
 cg2d: Sum(rhs),rhsMax =  -1.49463774690162E-13  4.29350672161869E-01
 cg2d: Sum(rhs),rhsMax =   5.20694598549198E-14  4.29186320753259E-01
 cg2d: Sum(rhs),rhsMax =  -5.18293741258447E-13  4.29019974182018E-01
 cg2d: Sum(rhs),rhsMax =  -5.42968447980741E-13  4.28851755389296E-01
 cg2d: Sum(rhs),rhsMax =  -5.54695178678344E-14  4.28681868585977E-01
 cg2d: Sum(rhs),rhsMax =  -2.76723088887820E-13  4.28510493090874E-01
 cg2d: Sum(rhs),rhsMax =   9.26481114049693E-14  4.28337983756530E-01
 cg2d: Sum(rhs),rhsMax =   1.88737914186277E-13  4.28164730649427E-01
 cg2d: Sum(rhs),rhsMax =  -3.18869930460153E-13  4.27991119006629E-01
 cg2d: Sum(rhs),rhsMax =  -3.22492033077992E-13  4.27817585230668E-01
 cg2d: Sum(rhs),rhsMax =  -2.85244050601818E-13  4.27644581955148E-01
 cg2d: Sum(rhs),rhsMax =  -4.20996570937859E-13  4.27472565287837E-01
 cg2d: Sum(rhs),rhsMax =   3.52357032440409E-14  4.27301981914789E-01
 cg2d: Sum(rhs),rhsMax =   4.79921657969840E-13  4.27133269500463E-01
 cg2d: Sum(rhs),rhsMax =   1.06678554878670E-13  4.26966839232001E-01
 cg2d: Sum(rhs),rhsMax =  -1.74138481412456E-13  4.26803034436163E-01
 cg2d: Sum(rhs),rhsMax =   5.49379985947951E-13  4.26643679161017E-01
 cg2d: Sum(rhs),rhsMax =   1.09648401469542E-13  4.26486974945943E-01
 cg2d: Sum(rhs),rhsMax =   3.12624925946636E-13  4.26333876667597E-01
 cg2d: Sum(rhs),rhsMax =   2.80761525139894E-13  4.26184174940259E-01
 cg2d: Sum(rhs),rhsMax =  -5.65658631046517E-14  4.26037901374144E-01
 cg2d: Sum(rhs),rhsMax =   3.87745391350336E-14  4.25895005186501E-01
 cg2d: Sum(rhs),rhsMax =  -3.10862446895044E-13  4.25755361208740E-01
 cg2d: Sum(rhs),rhsMax =   3.07698311274862E-13  4.25618760376316E-01
 cg2d: Sum(rhs),rhsMax =  -2.65079624917064E-13  4.25484980103096E-01
 cg2d: Sum(rhs),rhsMax =  -1.41664457942170E-13  4.25353667343775E-01
 cg2d: Sum(rhs),rhsMax =   6.04238881152241E-14  4.25224455599930E-01
 cg2d: Sum(rhs),rhsMax =  -3.97959443176887E-13  4.25096958403741E-01
 cg2d: Sum(rhs),rhsMax =  -4.30280810981287E-13  4.24970707528986E-01
 cg2d: Sum(rhs),rhsMax =  -4.61922167183104E-13  4.24845319511133E-01
 cg2d: Sum(rhs),rhsMax =   5.49282841433296E-14  4.24720277247257E-01
 cg2d: Sum(rhs),rhsMax =  -2.72823430513824E-13  4.24595174235448E-01
 cg2d: Sum(rhs),rhsMax =  -4.48557857524179E-13  4.24469642512395E-01
 cg2d: Sum(rhs),rhsMax =  -1.38486444534180E-13  4.24343122702421E-01
 cg2d: Sum(rhs),rhsMax =   6.05945849052603E-13  4.24215193097430E-01
 cg2d: Sum(rhs),rhsMax =   1.42483247422831E-13  4.24085487309913E-01
 cg2d: Sum(rhs),rhsMax =  -2.59139931735319E-13  4.23953717588478E-01
 cg2d: Sum(rhs),rhsMax =  -2.74030798053104E-13  4.23819652178374E-01
 cg2d: Sum(rhs),rhsMax =  -1.64951385883683E-13  4.23683126774345E-01
 cg2d: Sum(rhs),rhsMax =  -5.02375918642883E-14  4.23542754056746E-01
 cg2d: Sum(rhs),rhsMax =  -5.84532422465145E-14  4.23388290667053E-01
 cg2d: Sum(rhs),rhsMax =   9.99200722162641E-14  4.23231339583591E-01
 cg2d: Sum(rhs),rhsMax =   3.47749606888215E-13  4.23072528138642E-01
 cg2d: Sum(rhs),rhsMax =   1.40221168010157E-13  4.22913490226214E-01
 cg2d: Sum(rhs),rhsMax =   1.37737043992558E-13  4.22753312776776E-01
 cg2d: Sum(rhs),rhsMax =   2.81052958683858E-13  4.22592383236838E-01
 cg2d: Sum(rhs),rhsMax =   2.80497847171546E-13  4.22431155484559E-01
 cg2d: Sum(rhs),rhsMax =   3.90840138031479E-13  4.22270175250890E-01
 cg2d: Sum(rhs),rhsMax =  -2.90517609968788E-13  4.22109841161474E-01
 cg2d: Sum(rhs),rhsMax =   5.99326144268275E-13  4.21950613585387E-01
 cg2d: Sum(rhs),rhsMax =  -2.13495887635418E-13  4.21792930759278E-01
 cg2d: Sum(rhs),rhsMax =  -1.77191594730175E-13  4.21637204488417E-01
 cg2d: Sum(rhs),rhsMax =  -3.30332983189408E-13  4.21483808530626E-01
(PID.TID 0000.0001) // =======================================================
(PID.TID 0000.0001) // Begin MONITOR dynamic field statistics
(PID.TID 0000.0001) // =======================================================
(PID.TID 0000.0001) %MON time_tsnumber                =                 19440
(PID.TID 0000.0001) %MON time_secondsf                =   2.3328000000000E+07
(PID.TID 0000.0001) %MON dynstat_eta_max              =   2.2832056798889E-01
(PID.TID 0000.0001) %MON dynstat_eta_min              =  -2.7656473015635E-01
(PID.TID 0000.0001) %MON dynstat_eta_mean             =   6.5524775015613E-17
(PID.TID 0000.0001) %MON dynstat_eta_sd               =   1.3761747087277E-01
(PID.TID 0000.0001) %MON dynstat_eta_del2             =   3.2754906126479E-04
(PID.TID 0000.0001) %MON dynstat_uvel_max             =   2.5069541922695E-01
(PID.TID 0000.0001) %MON dynstat_uvel_min             =  -4.2463402252846E-01
(PID.TID 0000.0001) %MON dynstat_uvel_mean            =   4.9451323701595E-05
(PID.TID 0000.0001) %MON dynstat_uvel_sd              =   1.1124895469282E-02
(PID.TID 0000.0001) %MON dynstat_uvel_del2            =   3.1118064129451E-04
(PID.TID 0000.0001) %MON dynstat_vvel_max             =   3.8095391999432E-01
(PID.TID 0000.0001) %MON dynstat_vvel_min             =  -2.2323318891197E-01
(PID.TID 0000.0001) %MON dynstat_vvel_mean            =   1.4789595417551E-07
(PID.TID 0000.0001) %MON dynstat_vvel_sd              =   1.1795782819246E-02
(PID.TID 0000.0001) %MON dynstat_vvel_del2            =   2.1187781145824E-04
(PID.TID 0000.0001) %MON dynstat_wvel_max             =   2.2763570236828E-04
(PID.TID 0000.0001) %MON dynstat_wvel_min             =  -2.5456305006404E-04
(PID.TID 0000.0001) %MON dynstat_wvel_mean            =  -6.8238328529929E-23
(PID.TID 0000.0001) %MON dynstat_wvel_sd              =   1.0433513520886E-05
(PID.TID 0000.0001) %MON dynstat_wvel_del2            =   3.3742500509629E-07
(PID.TID 0000.0001) %MON dynstat_theta_max            =   2.6949669961659E+01
(PID.TID 0000.0001) %MON dynstat_theta_min            =   9.9155709769216E-01
(PID.TID 0000.0001) %MON dynstat_theta_mean           =   3.9933778726061E+00
(PID.TID 0000.0001) %MON dynstat_theta_sd             =   4.3984503255297E+00
(PID.TID 0000.0001) %MON dynstat_theta_del2           =   2.0361979287444E-03
(PID.TID 0000.0001) %MON dynstat_salt_max             =   3.4500000000008E+01
(PID.TID 0000.0001) %MON dynstat_salt_min             =   3.4499999999976E+01
(PID.TID 0000.0001) %MON dynstat_salt_mean            =   3.4499999999998E+01
(PID.TID 0000.0001) %MON dynstat_salt_sd              =   3.1416128491778E-12
(PID.TID 0000.0001) %MON dynstat_salt_del2            =   1.7766810031678E-14
(PID.TID 0000.0001) %MON trAdv_CFL_u_max              =   8.7862496211685E-03
(PID.TID 0000.0001) %MON trAdv_CFL_v_max              =   4.1017909809841E-03
(PID.TID 0000.0001) %MON trAdv_CFL_w_max              =   1.9600570593234E-02
(PID.TID 0000.0001) %MON advcfl_uvel_max              =   8.7861381030644E-03
(PID.TID 0000.0001) %MON advcfl_vvel_max              =   4.1118464938095E-03
(PID.TID 0000.0001) %MON advcfl_wvel_max              =   1.8385816056791E-02
(PID.TID 0000.0001) %MON advcfl_W_hf_max              =   1.9600570593234E-02
(PID.TID 0000.0001) %MON pe_b_mean                    =   2.9924908552425E-05
(PID.TID 0000.0001) %MON ke_max                       =   1.0242934435474E-01
(PID.TID 0000.0001) %MON ke_mean                      =   1.2861644905720E-04
(PID.TID 0000.0001) %MON ke_vol                       =   7.5744557036543E+16
(PID.TID 0000.0001) %MON vort_r_min                   =  -9.2664202431962E-06
(PID.TID 0000.0001) %MON vort_r_max                   =   7.1898608252020E-06
(PID.TID 0000.0001) %MON vort_a_mean                  =   9.3555569952477E-05
(PID.TID 0000.0001) %MON vort_a_sd                    =   2.5195113906864E-05
(PID.TID 0000.0001) %MON vort_p_mean                  =   9.7478626213493E-05
(PID.TID 0000.0001) %MON vort_p_sd                    =   3.9498930531237E-05
(PID.TID 0000.0001) %MON surfExpan_theta_mean         =  -1.2065479403887E-09
(PID.TID 0000.0001) %MON surfExpan_salt_mean          =  -1.5842005402967E-21
(PID.TID 0000.0001) // =======================================================
(PID.TID 0000.0001) // End MONITOR dynamic field statistics
(PID.TID 0000.0001) // =======================================================
(PID.TID 0000.0001) %CHECKPOINT     19440 ckptA
 cg2d: Sum(rhs),rhsMax =  -3.44529960116802E-13  4.21333064638353E-01
 cg2d: Sum(rhs),rhsMax =   2.48412401759879E-13  4.21185249741316E-01
 cg2d: Sum(rhs),rhsMax =   2.12163620005867E-13  4.21040579019492E-01
 cg2d: Sum(rhs),rhsMax =  -2.66092703427034E-13  4.20950963326237E-01
 cg2d: Sum(rhs),rhsMax =  -5.53307399897562E-14  4.21163129015093E-01
 cg2d: Sum(rhs),rhsMax =  -2.17492690524068E-13  4.21373903509041E-01
 cg2d: Sum(rhs),rhsMax =  -7.36632976838791E-14  4.21583283116831E-01
 cg2d: Sum(rhs),rhsMax =   5.16253706450698E-14  4.21792127255675E-01
 cg2d: Sum(rhs),rhsMax =  -6.43929354282591E-15  4.21999774261987E-01
 cg2d: Sum(rhs),rhsMax =  -5.98007754426533E-13  4.22205763302263E-01
 cg2d: Sum(rhs),rhsMax =  -5.10508302298263E-13  4.22409994510524E-01
 cg2d: Sum(rhs),rhsMax =   4.99614238869128E-13  4.22612427360102E-01
 cg2d: Sum(rhs),rhsMax =   3.91603416360908E-13  4.22813023981555E-01
 cg2d: Sum(rhs),rhsMax =   1.19987353386364E-13  4.23011749994430E-01
 cg2d: Sum(rhs),rhsMax =   1.19168563905703E-13  4.23208585540796E-01
 cg2d: Sum(rhs),rhsMax =  -1.04360964314765E-14  4.23403518650552E-01
 cg2d: Sum(rhs),rhsMax =   1.33684729952677E-13  4.23596561029579E-01
 cg2d: Sum(rhs),rhsMax =   4.91273688396632E-15  4.23787707335669E-01
 cg2d: Sum(rhs),rhsMax =  -4.98032171059037E-13  4.23976979933985E-01
 cg2d: Sum(rhs),rhsMax =   3.81264464444087E-13  4.24164392697632E-01
 cg2d: Sum(rhs),rhsMax =  -5.82880965716015E-13  4.24349952787405E-01
 cg2d: Sum(rhs),rhsMax =   4.26741975090295E-14  4.24533697648560E-01
 cg2d: Sum(rhs),rhsMax =   8.52373727155964E-14  4.24715639196676E-01
 cg2d: Sum(rhs),rhsMax =  -3.48332473976143E-14  4.24895818177656E-01
 cg2d: Sum(rhs),rhsMax =   1.09759423772005E-13  4.25074269505628E-01
 cg2d: Sum(rhs),rhsMax =   8.47655279301307E-14  4.25251004594459E-01
 cg2d: Sum(rhs),rhsMax =   4.54289383888806E-13  4.25426077946490E-01
 cg2d: Sum(rhs),rhsMax =   7.22200077518664E-14  4.25599340660819E-01
 cg2d: Sum(rhs),rhsMax =  -1.42996725571720E-13  4.25771262235648E-01
 cg2d: Sum(rhs),rhsMax =   2.96832003421343E-13  4.25876371606981E-01
 cg2d: Sum(rhs),rhsMax =   4.91440221850326E-13  4.25978799983473E-01
 cg2d: Sum(rhs),rhsMax =   2.42666997607444E-13  4.26080701711060E-01
 cg2d: Sum(rhs),rhsMax =   3.53883589099269E-14  4.26181416721675E-01
 cg2d: Sum(rhs),rhsMax =  -1.70946590216658E-13  4.26281210398464E-01
 cg2d: Sum(rhs),rhsMax =   2.11691775220402E-13  4.26380177914554E-01
 cg2d: Sum(rhs),rhsMax =  -4.83779682980412E-14  4.26478439686678E-01
 cg2d: Sum(rhs),rhsMax =   1.97356020414929E-13  4.26576086387804E-01
 cg2d: Sum(rhs),rhsMax =   7.13790138107129E-13  4.26673187339924E-01
 cg2d: Sum(rhs),rhsMax =   4.38205027819549E-13  4.26769787500894E-01
 cg2d: Sum(rhs),rhsMax =   7.52731210695856E-14  4.26865916309644E-01
 cg2d: Sum(rhs),rhsMax =   1.08746345262034E-13  4.26961527202862E-01
 cg2d: Sum(rhs),rhsMax =   2.09984807320041E-13  4.27056626170785E-01
 cg2d: Sum(rhs),rhsMax =  -3.06088487889156E-13  4.27151200865821E-01
 cg2d: Sum(rhs),rhsMax =   5.67601521339611E-14  4.27245191432904E-01
 cg2d: Sum(rhs),rhsMax =   4.49085213460876E-14  4.27338622271797E-01
 cg2d: Sum(rhs),rhsMax =   3.73895359118137E-13  4.27431250224277E-01
 cg2d: Sum(rhs),rhsMax =   3.71536135190809E-13  4.27523065849929E-01
 cg2d: Sum(rhs),rhsMax =   6.38239461281387E-14  4.27614011599883E-01
 cg2d: Sum(rhs),rhsMax =  -1.39971367829617E-13  4.27703951577107E-01
 cg2d: Sum(rhs),rhsMax =   2.76417777556048E-13  4.27792835863587E-01
 cg2d: Sum(rhs),rhsMax =   6.78485045924049E-14  4.27880604028409E-01
 cg2d: Sum(rhs),rhsMax =  -5.75053893392408E-13  4.27967161308204E-01
 cg2d: Sum(rhs),rhsMax =  -8.75827188551170E-14  4.28052442259656E-01
 cg2d: Sum(rhs),rhsMax =  -4.61158888853674E-14  4.28136392790219E-01
 cg2d: Sum(rhs),rhsMax =  -1.11036180250323E-13  4.28219927085525E-01
 cg2d: Sum(rhs),rhsMax =  -7.24975635080227E-14  4.28302682052426E-01
 cg2d: Sum(rhs),rhsMax =   5.87585535782864E-14  4.28383951923274E-01
 cg2d: Sum(rhs),rhsMax =   3.37369021607969E-13  4.28463634980125E-01
 cg2d: Sum(rhs),rhsMax =  -1.62148072746504E-13  4.28541743820050E-01
 cg2d: Sum(rhs),rhsMax =   2.52492471375376E-13  4.28618285473698E-01
 cg2d: Sum(rhs),rhsMax =  -1.28397292797899E-13  4.28693201820761E-01
 cg2d: Sum(rhs),rhsMax =  -1.69600444799300E-13  4.28766556871700E-01
 cg2d: Sum(rhs),rhsMax =   7.42045314083839E-14  4.28838358090399E-01
 cg2d: Sum(rhs),rhsMax =  -3.90520948911899E-14  4.28908648188933E-01
 cg2d: Sum(rhs),rhsMax =  -1.39721567649076E-13  4.28977410047520E-01
 cg2d: Sum(rhs),rhsMax =   7.05824287905443E-14  4.29044682770416E-01
 cg2d: Sum(rhs),rhsMax =  -5.51378387392276E-13  4.29110555576909E-01
 cg2d: Sum(rhs),rhsMax =  -1.57096557984460E-14  4.29175032629549E-01
 cg2d: Sum(rhs),rhsMax =   2.94278490464706E-13  4.29238123887607E-01
 cg2d: Sum(rhs),rhsMax =  -6.76403377752877E-14  4.29299896369919E-01
 cg2d: Sum(rhs),rhsMax =   2.19019247182928E-13  4.29360400270760E-01
 cg2d: Sum(rhs),rhsMax =   1.93595139919012E-13  4.29419660816442E-01
 cg2d: Sum(rhs),rhsMax =  -3.29652971586825E-13  4.29477767342060E-01
 cg2d: Sum(rhs),rhsMax =  -1.22957199977236E-14  4.29534736742420E-01
 cg2d: Sum(rhs),rhsMax =   1.00613961606655E-13  4.29590624530356E-01
 cg2d: Sum(rhs),rhsMax =   2.48204234942762E-13  4.29645475020390E-01
 cg2d: Sum(rhs),rhsMax =  -1.39249722863610E-13  4.29699342562196E-01
 cg2d: Sum(rhs),rhsMax =   1.34586786160185E-13  4.29752260054377E-01
 cg2d: Sum(rhs),rhsMax =   6.62664367823140E-14  4.29804265257503E-01
 cg2d: Sum(rhs),rhsMax =  -1.96440086419614E-13  4.29855392115015E-01
 cg2d: Sum(rhs),rhsMax =   3.84525744578923E-13  4.29905681727284E-01
 cg2d: Sum(rhs),rhsMax =   2.18020046460765E-13  4.29955009084446E-01
 cg2d: Sum(rhs),rhsMax =   2.80858669654549E-13  4.30003543973703E-01
 cg2d: Sum(rhs),rhsMax =   1.81299419921288E-13  4.30051299591723E-01
 cg2d: Sum(rhs),rhsMax =  -2.48648324152612E-13  4.30098065132779E-01
 cg2d: Sum(rhs),rhsMax =   1.05332409461312E-14  4.30144027230714E-01
 cg2d: Sum(rhs),rhsMax =  -2.52714515980301E-14  4.30189235404911E-01
 cg2d: Sum(rhs),rhsMax =   3.68233221692549E-13  4.30233639553671E-01
 cg2d: Sum(rhs),rhsMax =  -2.42320052912248E-13  4.30277209052883E-01
 cg2d: Sum(rhs),rhsMax =  -1.43537959296225E-13  4.30319938433821E-01
 cg2d: Sum(rhs),rhsMax =  -2.24473217791399E-13  4.30361785305499E-01
 cg2d: Sum(rhs),rhsMax =   2.70908295796346E-13  4.30402724105220E-01
 cg2d: Sum(rhs),rhsMax =   7.63000773673639E-14  4.30442703086510E-01
 cg2d: Sum(rhs),rhsMax =  -1.51267887105178E-15  4.30481693593162E-01
 cg2d: Sum(rhs),rhsMax =   3.03992941930176E-13  4.30519633386195E-01
 cg2d: Sum(rhs),rhsMax =  -3.29458682557515E-14  4.30556606450609E-01
 cg2d: Sum(rhs),rhsMax =   1.75207071073658E-13  4.30592502557783E-01
 cg2d: Sum(rhs),rhsMax =   9.78939151963232E-14  4.30627160039109E-01
 cg2d: Sum(rhs),rhsMax =  -1.78759784752458E-13  4.30660575872708E-01
 cg2d: Sum(rhs),rhsMax =   1.74513181683267E-13  4.30692701907455E-01
 cg2d: Sum(rhs),rhsMax =  -4.58105775535955E-14  4.30723490416763E-01
 cg2d: Sum(rhs),rhsMax =   3.41948691584548E-14  4.30752893031356E-01
 cg2d: Sum(rhs),rhsMax =  -3.68149954965702E-13  4.30780855232228E-01
 cg2d: Sum(rhs),rhsMax =  -4.70457006684910E-15  4.30807337703982E-01
 cg2d: Sum(rhs),rhsMax =   1.53571599881275E-13  4.30832299225693E-01
 cg2d: Sum(rhs),rhsMax =  -5.14338571733219E-13  4.30841870167936E-01
 cg2d: Sum(rhs),rhsMax =   2.38919994899334E-13  4.30765592415786E-01
 cg2d: Sum(rhs),rhsMax =  -1.38736244714721E-13  4.30686508153694E-01
 cg2d: Sum(rhs),rhsMax =  -3.71813690946965E-13  4.30607048469451E-01
 cg2d: Sum(rhs),rhsMax =   3.15858450505857E-13  4.30526204519822E-01
 cg2d: Sum(rhs),rhsMax =   3.95170007827517E-13  4.30444248714941E-01
 cg2d: Sum(rhs),rhsMax =  -7.65776331235202E-14  4.30361132717935E-01
 cg2d: Sum(rhs),rhsMax =  -1.44106948596345E-13  4.30276902342082E-01
 cg2d: Sum(rhs),rhsMax =   9.35349020458887E-13  4.30192543302472E-01
 cg2d: Sum(rhs),rhsMax =   2.53672083339040E-13  4.30107113171797E-01
 cg2d: Sum(rhs),rhsMax =  -2.12510564701063E-13  4.30020637962220E-01
 cg2d: Sum(rhs),rhsMax =  -4.07576750127703E-13  4.29933612679024E-01
 cg2d: Sum(rhs),rhsMax =   1.67643676718399E-14  4.29845573198024E-01
 cg2d: Sum(rhs),rhsMax =   2.84564038999235E-13  4.29756535087465E-01
 cg2d: Sum(rhs),rhsMax =  -3.33261196416856E-13  4.29666514448716E-01
 cg2d: Sum(rhs),rhsMax =   9.04415431435268E-14  4.29575524051864E-01
 cg2d: Sum(rhs),rhsMax =   8.43214387202806E-14  4.29483489992650E-01
 cg2d: Sum(rhs),rhsMax =   2.79082312815149E-14  4.29390153498518E-01
 cg2d: Sum(rhs),rhsMax =   1.83603132697385E-13  4.29295917070876E-01
 cg2d: Sum(rhs),rhsMax =  -1.09218190047500E-13  4.29200857682893E-01
 cg2d: Sum(rhs),rhsMax =  -1.22513110767386E-13  4.29104920619811E-01
 cg2d: Sum(rhs),rhsMax =   5.13894482523369E-14  4.29008142811744E-01
 cg2d: Sum(rhs),rhsMax =  -8.67361737988404E-14  4.28910539328766E-01
 cg2d: Sum(rhs),rhsMax =   2.54102294761083E-13  4.28812149488068E-01
 cg2d: Sum(rhs),rhsMax =   8.64308624670684E-14  4.28712992909998E-01
 cg2d: Sum(rhs),rhsMax =   3.20438120482436E-14  4.28613108011548E-01
 cg2d: Sum(rhs),rhsMax =  -7.17204073907851E-14  4.28512499081290E-01
 cg2d: Sum(rhs),rhsMax =  -6.11663497629422E-13  4.28411199613650E-01
 cg2d: Sum(rhs),rhsMax =  -2.05307992828807E-13  4.28309234746472E-01
 cg2d: Sum(rhs),rhsMax =   3.49456574788576E-13  4.28206618986799E-01
 cg2d: Sum(rhs),rhsMax =  -1.35752520336041E-13  4.28103374936868E-01
 cg2d: Sum(rhs),rhsMax =  -5.02764496701502E-13  4.27999500752163E-01
 cg2d: Sum(rhs),rhsMax =  -1.17530984944381E-13  4.27895006396061E-01
 cg2d: Sum(rhs),rhsMax =  -3.68496899660897E-13  4.27789895079644E-01
 cg2d: Sum(rhs),rhsMax =  -1.63272173558937E-13  4.27684827036239E-01
 cg2d: Sum(rhs),rhsMax =  -5.49435497099182E-13  4.27580098040552E-01
 cg2d: Sum(rhs),rhsMax =   2.71407896157427E-13  4.27474474927747E-01
 cg2d: Sum(rhs),rhsMax =  -1.03765607217809E-12  4.27367776674341E-01
 cg2d: Sum(rhs),rhsMax =   1.77940995271797E-13  4.27259892115733E-01
 cg2d: Sum(rhs),rhsMax =   3.47499806707674E-14  4.27150722946089E-01
 cg2d: Sum(rhs),rhsMax =   1.92387772379732E-13  4.27040183421485E-01
 cg2d: Sum(rhs),rhsMax =  -5.27633492453106E-14  4.26928226994799E-01
 cg2d: Sum(rhs),rhsMax =   4.11337630623620E-14  4.26814738566715E-01
 cg2d: Sum(rhs),rhsMax =  -3.01925151546811E-13  4.26700124880805E-01
 cg2d: Sum(rhs),rhsMax =  -3.13291059761411E-13  4.26583270159531E-01
 cg2d: Sum(rhs),rhsMax =   2.84397505545542E-13  4.26464769085367E-01
 cg2d: Sum(rhs),rhsMax =   1.31505917266850E-13  4.26342508589841E-01
 cg2d: Sum(rhs),rhsMax =   6.21960816182821E-13  4.26218476835587E-01
 cg2d: Sum(rhs),rhsMax =  -2.01547112332889E-13  4.26092808836506E-01
 cg2d: Sum(rhs),rhsMax =  -1.03583808197527E-13  4.25965501977785E-01
 cg2d: Sum(rhs),rhsMax =  -2.79637424327461E-13  4.25836583481232E-01
 cg2d: Sum(rhs),rhsMax =  -2.35866881581615E-13  4.25706149917141E-01
 cg2d: Sum(rhs),rhsMax =  -5.32907051820075E-15  4.25545605806998E-01
 cg2d: Sum(rhs),rhsMax =  -1.47215573065296E-13  4.25309722988954E-01
 cg2d: Sum(rhs),rhsMax =  -5.40359423872872E-13  4.25071789331341E-01
 cg2d: Sum(rhs),rhsMax =   2.66606181575924E-13  4.24833866150259E-01
 cg2d: Sum(rhs),rhsMax =  -1.87322379829880E-13  4.24595293231408E-01
 cg2d: Sum(rhs),rhsMax =  -4.78284079008517E-13  4.24356372275318E-01
 cg2d: Sum(rhs),rhsMax =  -4.16042200690470E-13  4.24117214134733E-01
 cg2d: Sum(rhs),rhsMax =  -2.12316275671753E-13  4.23877967376361E-01
 cg2d: Sum(rhs),rhsMax =   1.87155846376186E-13  4.23638733866657E-01
 cg2d: Sum(rhs),rhsMax =  -2.19019247182928E-13  4.23399534154154E-01
 cg2d: Sum(rhs),rhsMax =   3.23074900165921E-14  4.23160376946266E-01
 cg2d: Sum(rhs),rhsMax =  -5.33184607576231E-14  4.22921457889913E-01
 cg2d: Sum(rhs),rhsMax =  -5.94566063050195E-13  4.22681521114281E-01
 cg2d: Sum(rhs),rhsMax =   2.17367790433798E-13  4.22441790425820E-01
 cg2d: Sum(rhs),rhsMax =  -8.52012904672961E-13  4.22202254404610E-01
 cg2d: Sum(rhs),rhsMax =   3.17440518315948E-13  4.21962878042780E-01
 cg2d: Sum(rhs),rhsMax =   1.59455781911788E-13  4.21723627965851E-01
 cg2d: Sum(rhs),rhsMax =   5.59552404411079E-14  4.21484421833620E-01
 cg2d: Sum(rhs),rhsMax =  -6.53491150082175E-13  4.21245185704790E-01
 cg2d: Sum(rhs),rhsMax =  -1.04985464766116E-13  4.21005858463228E-01
 cg2d: Sum(rhs),rhsMax =  -3.38160055513015E-13  4.20766325457213E-01
 cg2d: Sum(rhs),rhsMax =   3.95669608188598E-13  4.20526522128205E-01
 cg2d: Sum(rhs),rhsMax =  -5.60301804952701E-13  4.20286343381743E-01
 cg2d: Sum(rhs),rhsMax =   4.99184027447086E-14  4.20044841713569E-01
 cg2d: Sum(rhs),rhsMax =  -4.62171967363645E-13  4.19803860703652E-01
 cg2d: Sum(rhs),rhsMax =  -4.62602178785687E-13  4.19562102784868E-01
 cg2d: Sum(rhs),rhsMax =  -3.17856851950182E-13  4.19319558376223E-01
 cg2d: Sum(rhs),rhsMax =  -2.92210700081341E-13  4.19076286875751E-01
 cg2d: Sum(rhs),rhsMax =   2.41404118916932E-13  4.18832244449578E-01
 cg2d: Sum(rhs),rhsMax =   1.14158682507082E-13  4.18587416242511E-01
 cg2d: Sum(rhs),rhsMax =   4.64517313503165E-13  4.18341777464641E-01
 cg2d: Sum(rhs),rhsMax =  -2.24126273096203E-14  4.18095339605927E-01
 cg2d: Sum(rhs),rhsMax =  -4.97268892729608E-13  4.17848085866820E-01
 cg2d: Sum(rhs),rhsMax =  -1.20348175869367E-13  4.17600048941932E-01
 cg2d: Sum(rhs),rhsMax =   3.21534465719253E-13  4.17351251284399E-01
 cg2d: Sum(rhs),rhsMax =   2.69118061169138E-13  4.17101735208586E-01
 cg2d: Sum(rhs),rhsMax =  -2.00200966915531E-13  4.16851554759994E-01
 cg2d: Sum(rhs),rhsMax =  -1.02085007114283E-13  4.16600766436125E-01
 cg2d: Sum(rhs),rhsMax =   2.70394817647457E-13  4.16349437896333E-01
 cg2d: Sum(rhs),rhsMax =   2.17617590614338E-13  4.16097638219596E-01
 cg2d: Sum(rhs),rhsMax =   2.00672811700997E-14  4.15845451988203E-01
 cg2d: Sum(rhs),rhsMax =   3.74672515235375E-13  4.15592939488584E-01
 cg2d: Sum(rhs),rhsMax =  -2.86354273626444E-13  4.15340206543964E-01
 cg2d: Sum(rhs),rhsMax =  -1.65381597305725E-13  4.15087391543357E-01
 cg2d: Sum(rhs),rhsMax =  -6.04169492213202E-13  4.14834531341907E-01
 cg2d: Sum(rhs),rhsMax =  -4.70540273411757E-13  4.14581696393287E-01
 cg2d: Sum(rhs),rhsMax =  -3.58629792529541E-13  4.14328960676055E-01
 cg2d: Sum(rhs),rhsMax =  -4.44533299059913E-13  4.14076396501632E-01
 cg2d: Sum(rhs),rhsMax =  -7.17870207722626E-13  4.13824049034451E-01
 cg2d: Sum(rhs),rhsMax =  -2.92807444957077E-13  4.13571968816029E-01
 cg2d: Sum(rhs),rhsMax =  -5.47936696015938E-13  4.13320215121212E-01
 cg2d: Sum(rhs),rhsMax =  -5.96564464494520E-13  4.13068795542965E-01
 cg2d: Sum(rhs),rhsMax =  -2.60888532999104E-13  4.12817716479810E-01
 cg2d: Sum(rhs),rhsMax =  -3.17690318496489E-13  4.12566989207104E-01
 cg2d: Sum(rhs),rhsMax =  -2.89462898095394E-13  4.12316608637711E-01
 cg2d: Sum(rhs),rhsMax =   4.69041472328513E-13  4.12066551922140E-01
 cg2d: Sum(rhs),rhsMax =   5.67296210007839E-13  4.11816793800270E-01
 cg2d: Sum(rhs),rhsMax =  -4.23827639650654E-13  4.11567283673151E-01
 cg2d: Sum(rhs),rhsMax =   2.73628342206678E-13  4.11318001168667E-01
 cg2d: Sum(rhs),rhsMax =  -2.67175170876044E-13  4.11068851839337E-01
 cg2d: Sum(rhs),rhsMax =  -5.29687405048662E-13  4.10819794622379E-01
 cg2d: Sum(rhs),rhsMax =  -6.38905595096162E-13  4.10570757058317E-01
 cg2d: Sum(rhs),rhsMax =   2.73031597330942E-13  4.10321666925029E-01
 cg2d: Sum(rhs),rhsMax =  -3.26891291813070E-13  4.10072439803756E-01
 cg2d: Sum(rhs),rhsMax =  -3.60017571310323E-13  4.09823031092586E-01
 cg2d: Sum(rhs),rhsMax =  -2.16285322984788E-13  4.09572923656450E-01
 cg2d: Sum(rhs),rhsMax =  -8.34471380883883E-14  4.09322482956942E-01
 cg2d: Sum(rhs),rhsMax =  -2.38489783477291E-13  4.09071655318428E-01
 cg2d: Sum(rhs),rhsMax =  -9.56457135714572E-14  4.08820380505106E-01
 cg2d: Sum(rhs),rhsMax =   1.95399252334028E-14  4.08568610877221E-01
 cg2d: Sum(rhs),rhsMax =   3.03757019537443E-13  4.08316311909288E-01
 cg2d: Sum(rhs),rhsMax =   1.78454473420686E-13  4.08063449849540E-01
 cg2d: Sum(rhs),rhsMax =  -5.37112021525843E-13  4.07810003354388E-01
 cg2d: Sum(rhs),rhsMax =  -3.17856851950182E-13  4.07555953277378E-01
 cg2d: Sum(rhs),rhsMax =  -1.56000212747642E-13  4.07301294805122E-01
 cg2d: Sum(rhs),rhsMax =  -3.24587579036972E-13  4.07046047971929E-01
 cg2d: Sum(rhs),rhsMax =  -2.28733698648398E-13  4.06790219647434E-01
 cg2d: Sum(rhs),rhsMax =  -3.45973250048814E-14  4.06533868057710E-01
 cg2d: Sum(rhs),rhsMax =   2.82135426132868E-13  4.06277032020101E-01
 cg2d: Sum(rhs),rhsMax =  -2.38392638962637E-13  4.06019745643563E-01
 cg2d: Sum(rhs),rhsMax =   4.94743135348585E-14  4.05762055178332E-01
 cg2d: Sum(rhs),rhsMax =   1.47798440153224E-14  4.05504013826018E-01
 cg2d: Sum(rhs),rhsMax =   1.45022882591661E-14  4.05246852901929E-01
 cg2d: Sum(rhs),rhsMax =   2.03989602987065E-13  4.05102882621182E-01
 cg2d: Sum(rhs),rhsMax =   3.30541150006525E-13  4.05129539573918E-01
 cg2d: Sum(rhs),rhsMax =   5.70016256418171E-13  4.05155626203168E-01
 cg2d: Sum(rhs),rhsMax =  -2.96124236243145E-13  4.05181144908288E-01
 cg2d: Sum(rhs),rhsMax =   3.80945275324507E-14  4.05205971256917E-01
 cg2d: Sum(rhs),rhsMax =  -1.21611054559878E-13  4.05230106856023E-01
 cg2d: Sum(rhs),rhsMax =  -1.23415166974894E-13  4.05253505822624E-01
 cg2d: Sum(rhs),rhsMax =  -1.26010313294955E-13  4.05276289165999E-01
 cg2d: Sum(rhs),rhsMax =   3.05866443284231E-14  4.05298425738546E-01
 cg2d: Sum(rhs),rhsMax =   8.43367042868692E-13  4.05319960553973E-01
 cg2d: Sum(rhs),rhsMax =   1.06747943817709E-13  4.05340924301710E-01
 cg2d: Sum(rhs),rhsMax =   1.71668235182665E-14  4.05361445064842E-01
 cg2d: Sum(rhs),rhsMax =  -3.60017571310323E-13  4.05381551043400E-01
 cg2d: Sum(rhs),rhsMax =  -1.41164857581089E-13  4.05401343680405E-01
 cg2d: Sum(rhs),rhsMax =  -8.02691246803988E-14  4.05420873097413E-01
 cg2d: Sum(rhs),rhsMax =   3.61585761332606E-13  4.05440404100920E-01
 cg2d: Sum(rhs),rhsMax =   4.68791672147972E-13  4.05459873613749E-01
 cg2d: Sum(rhs),rhsMax =  -1.15435438985401E-13  4.05479454253756E-01
 cg2d: Sum(rhs),rhsMax =  -1.12368447879874E-13  4.05499238850598E-01
 cg2d: Sum(rhs),rhsMax =   1.33601463225830E-13  4.05519413055838E-01
 cg2d: Sum(rhs),rhsMax =  -2.07528438878057E-13  4.05540059835321E-01
 cg2d: Sum(rhs),rhsMax =   2.07195371970670E-13  4.05561300914307E-01
 cg2d: Sum(rhs),rhsMax =  -5.43828870824825E-13  4.05583334960567E-01
 cg2d: Sum(rhs),rhsMax =  -9.46187572736790E-14  4.05606278340261E-01
 cg2d: Sum(rhs),rhsMax =  -3.62043728330264E-13  4.05630194565407E-01
 cg2d: Sum(rhs),rhsMax =   9.76441150157825E-14  4.05655204615258E-01
 cg2d: Sum(rhs),rhsMax =  -9.68530811107371E-14  4.05681363118631E-01
 cg2d: Sum(rhs),rhsMax =  -2.25958141086835E-13  4.05708719106803E-01
 cg2d: Sum(rhs),rhsMax =  -4.68014516030735E-13  4.05737332652221E-01
 cg2d: Sum(rhs),rhsMax =   6.43513020648356E-13  4.05767284388406E-01
 cg2d: Sum(rhs),rhsMax =   1.82132087189757E-13  4.05829282831301E-01
 cg2d: Sum(rhs),rhsMax =  -3.35731442646647E-13  4.05893229210895E-01
 cg2d: Sum(rhs),rhsMax =  -6.13536998983477E-14  4.05957790907313E-01
 cg2d: Sum(rhs),rhsMax =  -2.53144727402344E-13  4.06023183798547E-01
 cg2d: Sum(rhs),rhsMax =   9.42024236394445E-14  4.06089462407246E-01
 cg2d: Sum(rhs),rhsMax =  -1.61134994236534E-13  4.06156182663073E-01
 cg2d: Sum(rhs),rhsMax =   2.48634446364804E-13  4.06223388925855E-01
 cg2d: Sum(rhs),rhsMax =   2.17020845738602E-13  4.06290578977330E-01
 cg2d: Sum(rhs),rhsMax =  -3.68205466116933E-13  4.06357520994428E-01
 cg2d: Sum(rhs),rhsMax =   2.12121986642444E-13  4.06424015608906E-01
 cg2d: Sum(rhs),rhsMax =  -2.69603783742411E-13  4.06489880287152E-01
 cg2d: Sum(rhs),rhsMax =   4.38538094726937E-13  4.06554976736127E-01
 cg2d: Sum(rhs),rhsMax =  -5.30964161526981E-13  4.06619194053259E-01
 cg2d: Sum(rhs),rhsMax =  -1.32213684445048E-13  4.06682101370664E-01
 cg2d: Sum(rhs),rhsMax =  -3.86593534962287E-13  4.06743665773893E-01
 cg2d: Sum(rhs),rhsMax =   5.29576382746200E-14  4.06803956288803E-01
 cg2d: Sum(rhs),rhsMax =   7.03104241495112E-13  4.06862949003248E-01
 cg2d: Sum(rhs),rhsMax =   3.29097860074512E-13  4.06920685199035E-01
 cg2d: Sum(rhs),rhsMax =   2.26346719145454E-14  4.06977220900494E-01
 cg2d: Sum(rhs),rhsMax =  -4.43339809308441E-13  4.07032630994492E-01
 cg2d: Sum(rhs),rhsMax =  -1.69558811435877E-13  4.07087000741531E-01
 cg2d: Sum(rhs),rhsMax =  -6.77929934411736E-14  4.07140419833241E-01
 cg2d: Sum(rhs),rhsMax =   2.86728973897254E-13  4.07194380019624E-01
 cg2d: Sum(rhs),rhsMax =   2.37310171513627E-14  4.07247604057928E-01
 cg2d: Sum(rhs),rhsMax =   1.75387482315159E-13  4.07300111127857E-01
 cg2d: Sum(rhs),rhsMax =  -1.10161879618431E-13  4.07351999309538E-01
 cg2d: Sum(rhs),rhsMax =   5.47978329379362E-13  4.07403349915875E-01
 cg2d: Sum(rhs),rhsMax =  -2.71047073674424E-13  4.07454238690754E-01
 cg2d: Sum(rhs),rhsMax =   2.44443354446844E-13  4.07504743002924E-01
 cg2d: Sum(rhs),rhsMax =   1.65492619608187E-13  4.07554925974401E-01
 cg2d: Sum(rhs),rhsMax =  -1.97244998112467E-13  4.07604869837740E-01
 cg2d: Sum(rhs),rhsMax =  -8.79019079746968E-14  4.07654623742989E-01
 cg2d: Sum(rhs),rhsMax =  -4.06619182768964E-13  4.07704257383167E-01
 cg2d: Sum(rhs),rhsMax =   3.95516952522712E-14  4.07753812637367E-01
 cg2d: Sum(rhs),rhsMax =  -1.59067203853169E-13  4.07803337738099E-01
 cg2d: Sum(rhs),rhsMax =  -4.71581107497343E-13  4.07878424778171E-01
 cg2d: Sum(rhs),rhsMax =  -1.02223784992361E-13  4.08143664168473E-01
 cg2d: Sum(rhs),rhsMax =   3.73590047786365E-13  4.08408204149441E-01
 cg2d: Sum(rhs),rhsMax =  -4.90898988125821E-13  4.08672155780964E-01
 cg2d: Sum(rhs),rhsMax =  -2.08902339871031E-13  4.08935610019567E-01
 cg2d: Sum(rhs),rhsMax =   4.91842677696752E-13  4.09198643672444E-01
 cg2d: Sum(rhs),rhsMax =   4.22897827867530E-13  4.09461300617912E-01
 cg2d: Sum(rhs),rhsMax =  -1.98049909805320E-13  4.09723572040294E-01
 cg2d: Sum(rhs),rhsMax =   9.60342916300760E-14  4.09985460108798E-01
 cg2d: Sum(rhs),rhsMax =  -3.42975647882326E-13  4.10246961962806E-01
 cg2d: Sum(rhs),rhsMax =   6.56599774551125E-13  4.10508032560315E-01
 cg2d: Sum(rhs),rhsMax =   3.66193186884800E-13  4.10768621098506E-01
 cg2d: Sum(rhs),rhsMax =  -1.22221677223422E-13  4.11028563541401E-01
 cg2d: Sum(rhs),rhsMax =  -5.34752797598514E-13  4.11287554404945E-01
 cg2d: Sum(rhs),rhsMax =   3.18703397006459E-13  4.11545365799475E-01
 cg2d: Sum(rhs),rhsMax =  -4.74550954088215E-13  4.11801854576958E-01
 cg2d: Sum(rhs),rhsMax =  -2.82218692859715E-13  4.12056955225318E-01
 cg2d: Sum(rhs),rhsMax =   5.73152636462737E-14  4.12310588151225E-01
 cg2d: Sum(rhs),rhsMax =   4.12198053467705E-13  4.12565605649246E-01
 cg2d: Sum(rhs),rhsMax =  -7.61196661258623E-13  4.12819171033846E-01
 cg2d: Sum(rhs),rhsMax =   3.99444366472324E-13  4.13071108071713E-01
 cg2d: Sum(rhs),rhsMax =  -1.51254009317370E-13  4.13321502665585E-01
 cg2d: Sum(rhs),rhsMax =  -8.42798053568572E-14  4.13570363242617E-01
 cg2d: Sum(rhs),rhsMax =  -3.47388784405211E-13  4.13817730100877E-01
 cg2d: Sum(rhs),rhsMax =  -5.07177633224387E-13  4.14063628211260E-01
 cg2d: Sum(rhs),rhsMax =  -4.52915482895833E-13  4.14308128017055E-01
 cg2d: Sum(rhs),rhsMax =  -1.31866739749853E-13  4.14551342639483E-01
 cg2d: Sum(rhs),rhsMax =  -1.80203074684471E-13  4.14793305640062E-01
 cg2d: Sum(rhs),rhsMax =   2.02476924116013E-13  4.15034132350597E-01
 cg2d: Sum(rhs),rhsMax =  -2.74488765050762E-13  4.15273848438873E-01
 cg2d: Sum(rhs),rhsMax =   1.66130997847347E-13  4.15512502569641E-01
 cg2d: Sum(rhs),rhsMax =  -1.95524152424298E-13  4.15749951098224E-01
 cg2d: Sum(rhs),rhsMax =  -5.26217958096709E-13  4.15986094493257E-01
 cg2d: Sum(rhs),rhsMax =   1.06387121334706E-13  4.16220767078425E-01
 cg2d: Sum(rhs),rhsMax =  -1.16906484493029E-13  4.16453750962134E-01
 cg2d: Sum(rhs),rhsMax =  -5.05678832141143E-13  4.16685104872845E-01
 cg2d: Sum(rhs),rhsMax =  -4.26117474638943E-13  4.16914815792656E-01
 cg2d: Sum(rhs),rhsMax =   5.58525448113301E-13  4.17142911188578E-01
 cg2d: Sum(rhs),rhsMax =  -7.86593012946923E-14  4.17369423882953E-01
 cg2d: Sum(rhs),rhsMax =  -6.07763839255426E-13  4.17594506547196E-01
 cg2d: Sum(rhs),rhsMax =  -9.18709552877317E-15  4.17818068984888E-01
 cg2d: Sum(rhs),rhsMax =  -3.56784046751102E-13  4.18040205559708E-01
 cg2d: Sum(rhs),rhsMax =  -3.91964238843912E-13  4.18260976048444E-01
 cg2d: Sum(rhs),rhsMax =  -7.32885974130681E-14  4.18481411094877E-01
 cg2d: Sum(rhs),rhsMax =   1.85226833870900E-13  4.18701708087482E-01
 cg2d: Sum(rhs),rhsMax =  -1.23637211579819E-13  4.18921942101625E-01
 cg2d: Sum(rhs),rhsMax =  -6.47898401595626E-13  4.19142195394727E-01
 cg2d: Sum(rhs),rhsMax =   1.11438636096750E-13  4.19362550030560E-01
 cg2d: Sum(rhs),rhsMax =  -1.43107747874183E-13  4.19583101503117E-01
 cg2d: Sum(rhs),rhsMax =  -6.42111364079767E-13  4.19795354615944E-01
 cg2d: Sum(rhs),rhsMax =  -3.77961550945827E-13  4.20006089439737E-01
 cg2d: Sum(rhs),rhsMax =  -1.67074687418278E-13  4.20215625009962E-01
 cg2d: Sum(rhs),rhsMax =  -2.06862305063282E-13  4.20423886890891E-01
 cg2d: Sum(rhs),rhsMax =  -4.41410796803154E-13  4.20584778849732E-01
 cg2d: Sum(rhs),rhsMax =  -6.23279206024563E-13  4.20732171589262E-01
 cg2d: Sum(rhs),rhsMax =  -4.52179960142018E-13  4.20877139187656E-01
 cg2d: Sum(rhs),rhsMax =   1.70238823038460E-13  4.21021396195988E-01
 cg2d: Sum(rhs),rhsMax =  -2.34257058195908E-14  4.21164999155122E-01
 cg2d: Sum(rhs),rhsMax =  -1.62606039744162E-13  4.21308049584302E-01
 cg2d: Sum(rhs),rhsMax =  -3.49303919122690E-13  4.21450588425508E-01
 cg2d: Sum(rhs),rhsMax =  -2.61152210967452E-13  4.21592591626063E-01
 cg2d: Sum(rhs),rhsMax =  -2.81122347622897E-13  4.21734588858838E-01
 cg2d: Sum(rhs),rhsMax =   3.76684794467508E-13  4.21876210415347E-01
 cg2d: Sum(rhs),rhsMax =  -7.10431713457638E-13  4.22017352587500E-01
 cg2d: Sum(rhs),rhsMax =  -1.58442703401818E-13  4.22157997268221E-01
 cg2d: Sum(rhs),rhsMax =   2.63788990650937E-13  4.22298071287083E-01
 cg2d: Sum(rhs),rhsMax =   3.48471251854221E-13  4.22437478479735E-01
 cg2d: Sum(rhs),rhsMax =  -1.34892097491957E-14  4.22576107983883E-01
 cg2d: Sum(rhs),rhsMax =  -4.03663213965899E-13  4.22713804328341E-01
 cg2d: Sum(rhs),rhsMax =   3.05422354074381E-13  4.22850382761429E-01
 cg2d: Sum(rhs),rhsMax =  -2.17298401494759E-13  4.22985661952033E-01
 cg2d: Sum(rhs),rhsMax =  -1.86420323622372E-13  4.23119475357066E-01
 cg2d: Sum(rhs),rhsMax =  -6.47232267780851E-13  4.23251682299299E-01
 cg2d: Sum(rhs),rhsMax =  -3.19230752943156E-13  4.23386974725359E-01
 cg2d: Sum(rhs),rhsMax =   4.39551173236907E-13  4.23520150849183E-01
 cg2d: Sum(rhs),rhsMax =   1.64521174461640E-13  4.23650650882024E-01
 cg2d: Sum(rhs),rhsMax =  -6.18727291623600E-13  4.23778308189745E-01
 cg2d: Sum(rhs),rhsMax =  -2.91225377146986E-13  4.23902897151647E-01
 cg2d: Sum(rhs),rhsMax =  -2.32883157202934E-13  4.24024216793335E-01
 cg2d: Sum(rhs),rhsMax =  -6.95277169171504E-15  4.24142119353613E-01
 cg2d: Sum(rhs),rhsMax =  -2.07736605695175E-13  4.24256491433428E-01
 cg2d: Sum(rhs),rhsMax =  -7.47998885053391E-13  4.24367248452179E-01
 cg2d: Sum(rhs),rhsMax =  -9.34530230978226E-14  4.24474360268862E-01
 cg2d: Sum(rhs),rhsMax =   1.72944991660984E-13  4.24577820064922E-01
 cg2d: Sum(rhs),rhsMax =  -2.95707902608910E-13  4.24678034226219E-01
 cg2d: Sum(rhs),rhsMax =   1.44675937896466E-13  4.24774696795760E-01
 cg2d: Sum(rhs),rhsMax =  -3.84123288732496E-13  4.24867866176115E-01
 cg2d: Sum(rhs),rhsMax =   1.70502501006808E-13  4.24957589070149E-01
 cg2d: Sum(rhs),rhsMax =   2.19976814541667E-13  4.25043990309140E-01
 cg2d: Sum(rhs),rhsMax =   3.34898775378178E-13  4.25127208263324E-01
 cg2d: Sum(rhs),rhsMax =   7.93948240485065E-14  4.25207370685155E-01
 cg2d: Sum(rhs),rhsMax =  -3.15483750235046E-13  4.25284620079536E-01
 cg2d: Sum(rhs),rhsMax =  -3.40713568469653E-13  4.25359179761490E-01
 cg2d: Sum(rhs),rhsMax =   2.36893837879393E-14  4.25431207675189E-01
 cg2d: Sum(rhs),rhsMax =  -9.10244102314550E-14  4.25500878743166E-01
 cg2d: Sum(rhs),rhsMax =  -2.98927549380323E-14  4.25568373061475E-01
 cg2d: Sum(rhs),rhsMax =  -5.50851031455579E-13  4.25594542270874E-01
 cg2d: Sum(rhs),rhsMax =   2.18380868943768E-13  4.25618080735487E-01
 cg2d: Sum(rhs),rhsMax =  -3.35856342736918E-13  4.25640511761245E-01
 cg2d: Sum(rhs),rhsMax =   5.82631165535474E-13  4.25661092691206E-01
 cg2d: Sum(rhs),rhsMax =   1.85365611748978E-13  4.25680481578766E-01
 cg2d: Sum(rhs),rhsMax =  -4.94396190653390E-13  4.25698836215121E-01
 cg2d: Sum(rhs),rhsMax =   4.74481565149176E-14  4.25716313997144E-01
 cg2d: Sum(rhs),rhsMax =  -1.41955891486134E-13  4.25733038638309E-01
 cg2d: Sum(rhs),rhsMax =  -1.62037050444042E-13  4.25749085367797E-01
 cg2d: Sum(rhs),rhsMax =  -2.75196532228961E-14  4.25764547128858E-01
 cg2d: Sum(rhs),rhsMax =   1.70696790036118E-15  4.25779455712680E-01
 cg2d: Sum(rhs),rhsMax =   4.63573623932234E-13  4.25793853219839E-01
 cg2d: Sum(rhs),rhsMax =  -2.27179386413923E-14  4.25807739512204E-01
 cg2d: Sum(rhs),rhsMax =  -2.39364084109184E-13  4.25821108253238E-01
 cg2d: Sum(rhs),rhsMax =   5.93941562598843E-13  4.25833934625024E-01
 cg2d: Sum(rhs),rhsMax =  -5.41372502382842E-14  4.25846163010778E-01
 cg2d: Sum(rhs),rhsMax =   8.11850586757146E-14  4.25857767295383E-01
 cg2d: Sum(rhs),rhsMax =   5.49005285677140E-13  4.25868659182180E-01
 cg2d: Sum(rhs),rhsMax =  -1.84963155902551E-13  4.25878779676758E-01
 cg2d: Sum(rhs),rhsMax =   4.70457006684910E-14  4.25888047176774E-01
 cg2d: Sum(rhs),rhsMax =  -4.32986979603811E-15  4.25896390556330E-01
 cg2d: Sum(rhs),rhsMax =  -5.78509462556553E-13  4.25903729320065E-01
 cg2d: Sum(rhs),rhsMax =   4.30627755676483E-14  4.25909989317638E-01
 cg2d: Sum(rhs),rhsMax =  -2.22599716437344E-14  4.25915112478808E-01
 cg2d: Sum(rhs),rhsMax =   1.76650361005670E-13  4.25919058679204E-01
 cg2d: Sum(rhs),rhsMax =   2.14675499599082E-13  4.25921781850654E-01
 cg2d: Sum(rhs),rhsMax =   5.98229799031458E-13  4.25923230019241E-01
 cg2d: Sum(rhs),rhsMax =   2.23709939461969E-13  4.25923327779663E-01
 cg2d: Sum(rhs),rhsMax =  -1.69517178072454E-13  4.25922037891058E-01
 cg2d: Sum(rhs),rhsMax =  -1.64548930037256E-13  4.25919368028327E-01
 cg2d: Sum(rhs),rhsMax =   2.12010964339981E-13  4.25915337394682E-01
 cg2d: Sum(rhs),rhsMax =   1.39041556046493E-13  4.25909976773454E-01
 cg2d: Sum(rhs),rhsMax =  -1.24997234784985E-13  4.25903337941097E-01
 cg2d: Sum(rhs),rhsMax =   1.03098085624254E-13  4.25895472503092E-01
 cg2d: Sum(rhs),rhsMax =   3.48790440973801E-13  4.25886453010047E-01
 cg2d: Sum(rhs),rhsMax =   2.84702816877314E-13  4.25876331088136E-01
 cg2d: Sum(rhs),rhsMax =  -2.01200167637694E-13  4.25865173267881E-01
 cg2d: Sum(rhs),rhsMax =   6.61651289313170E-13  4.25853054008605E-01
 cg2d: Sum(rhs),rhsMax =  -4.05550593107762E-13  4.25840053753521E-01
 cg2d: Sum(rhs),rhsMax =  -4.52526904837214E-13  4.25826246454100E-01
 cg2d: Sum(rhs),rhsMax =  -6.10206329909602E-14  4.25811709716068E-01
 cg2d: Sum(rhs),rhsMax =   2.11122785920281E-13  4.25796365933859E-01
 cg2d: Sum(rhs),rhsMax =  -3.30929728065144E-13  4.25780284608362E-01
 cg2d: Sum(rhs),rhsMax =  -5.72208946891806E-13  4.25763524289440E-01
 cg2d: Sum(rhs),rhsMax =   3.67886276997353E-13  4.25746319068132E-01
 cg2d: Sum(rhs),rhsMax =  -5.28466159721575E-14  4.25728661414641E-01
 cg2d: Sum(rhs),rhsMax =  -1.40470968190698E-13  4.25710490674849E-01
 cg2d: Sum(rhs),rhsMax =   2.69353983561871E-13  4.25691860679515E-01
 cg2d: Sum(rhs),rhsMax =  -1.44315115413463E-13  4.25672817131836E-01
 cg2d: Sum(rhs),rhsMax =  -1.45120027106316E-13  4.25653402748162E-01
 cg2d: Sum(rhs),rhsMax =   4.68236560635660E-13  4.25633648847926E-01
 cg2d: Sum(rhs),rhsMax =  -4.37844205336546E-14  4.25613577035833E-01
 cg2d: Sum(rhs),rhsMax =  -4.30211422042248E-16  4.25593198345820E-01
 cg2d: Sum(rhs),rhsMax =  -9.58677581763823E-14  4.25572506966849E-01
 cg2d: Sum(rhs),rhsMax =  -8.66945404354169E-14  4.25551501254022E-01
 cg2d: Sum(rhs),rhsMax =   1.51420542771064E-13  4.25530165686356E-01
 cg2d: Sum(rhs),rhsMax =  -4.38607483665976E-13  4.25508480711739E-01
 cg2d: Sum(rhs),rhsMax =  -3.01578206851616E-13  4.25486421373999E-01
 cg2d: Sum(rhs),rhsMax =   5.57373591725252E-13  4.25463943530464E-01
 cg2d: Sum(rhs),rhsMax =  -3.64569485711286E-13  4.25441002303208E-01
 cg2d: Sum(rhs),rhsMax =  -9.98229277016094E-14  4.25417506671289E-01
 cg2d: Sum(rhs),rhsMax =   5.77732306439316E-14  4.25393509594038E-01
 cg2d: Sum(rhs),rhsMax =   2.54934962029552E-13  4.25368940402450E-01
 cg2d: Sum(rhs),rhsMax =   3.39173134022985E-13  4.25343754925147E-01
 cg2d: Sum(rhs),rhsMax =   1.71834768636359E-13  4.25317889543852E-01
 cg2d: Sum(rhs),rhsMax =   1.62869717712510E-13  4.25291186434694E-01
 cg2d: Sum(rhs),rhsMax =  -1.49352752387699E-13  4.25263433148998E-01
 cg2d: Sum(rhs),rhsMax =   1.97647453958893E-13  4.25234409282643E-01
 cg2d: Sum(rhs),rhsMax =  -1.35627620245771E-13  4.25204026527060E-01
 cg2d: Sum(rhs),rhsMax =   3.37993522059321E-13  4.25172151278903E-01
 cg2d: Sum(rhs),rhsMax =   2.98164271050894E-13  4.25138679542110E-01
 cg2d: Sum(rhs),rhsMax =  -2.53089216251112E-13  4.25103536983629E-01
 cg2d: Sum(rhs),rhsMax =  -5.95634652711396E-14  4.25066678088542E-01
 cg2d: Sum(rhs),rhsMax =  -4.36900515765615E-13  4.25028093925933E-01
 cg2d: Sum(rhs),rhsMax =  -3.60711460700713E-13  4.24987805483328E-01
 cg2d: Sum(rhs),rhsMax =  -1.95024552063217E-13  4.24945833446398E-01
 cg2d: Sum(rhs),rhsMax =   5.55250290190656E-14  4.24902231155021E-01
 cg2d: Sum(rhs),rhsMax =  -1.09301456774347E-13  4.24857101865955E-01
 cg2d: Sum(rhs),rhsMax =  -3.97307187149920E-13  4.24810502349323E-01
 cg2d: Sum(rhs),rhsMax =   4.17527123985906E-13  4.24762455907870E-01
 cg2d: Sum(rhs),rhsMax =   1.56125112837913E-14  4.24712931325018E-01
 cg2d: Sum(rhs),rhsMax =   3.29333782467245E-13  4.24662021451779E-01
 cg2d: Sum(rhs),rhsMax =  -3.08225667211559E-14  4.24609794194306E-01
 cg2d: Sum(rhs),rhsMax =   7.51759765549309E-14  4.24556321747022E-01
 cg2d: Sum(rhs),rhsMax =  -6.02531913251880E-13  4.24501682844377E-01
 cg2d: Sum(rhs),rhsMax =   4.47752945831326E-13  4.24445945431245E-01
 cg2d: Sum(rhs),rhsMax =  -1.64881996944644E-13  4.24389182314314E-01
 cg2d: Sum(rhs),rhsMax =   3.21631610233908E-13  4.24331465163692E-01
 cg2d: Sum(rhs),rhsMax =  -6.10900219299992E-14  4.24272856906496E-01
 cg2d: Sum(rhs),rhsMax =  -4.70040673050676E-14  4.24210897646012E-01
 cg2d: Sum(rhs),rhsMax =   3.52634588196565E-13  4.24148107754824E-01
 cg2d: Sum(rhs),rhsMax =   3.61682905847260E-13  4.24084686394027E-01
 cg2d: Sum(rhs),rhsMax =   2.52617371465647E-13  4.24020657230463E-01
 cg2d: Sum(rhs),rhsMax =  -4.37386238338888E-13  4.23956119578600E-01
 cg2d: Sum(rhs),rhsMax =   2.16271445196980E-13  4.23891129179443E-01
 cg2d: Sum(rhs),rhsMax =   1.00475183728577E-13  4.23825755477476E-01
 cg2d: Sum(rhs),rhsMax =  -5.80646641878957E-13  4.23760033599333E-01
 cg2d: Sum(rhs),rhsMax =   3.46320194744010E-13  4.23694003760271E-01
 cg2d: Sum(rhs),rhsMax =  -8.14653899894324E-13  4.23627637790570E-01
 cg2d: Sum(rhs),rhsMax =  -7.09848846369709E-14  4.23560959790845E-01
 cg2d: Sum(rhs),rhsMax =   4.87110352054287E-14  4.23493989386861E-01
 cg2d: Sum(rhs),rhsMax =   3.38784555964367E-13  4.23426732876640E-01
 cg2d: Sum(rhs),rhsMax =   1.15601972439094E-13  4.23359215044877E-01
 cg2d: Sum(rhs),rhsMax =  -4.43547976125558E-13  4.23291432731207E-01
 cg2d: Sum(rhs),rhsMax =  -4.13696854550949E-14  4.23223339131620E-01
 cg2d: Sum(rhs),rhsMax =  -2.66203725729497E-13  4.23154883392350E-01
 cg2d: Sum(rhs),rhsMax =   7.16954273727310E-13  4.23086005266513E-01
 cg2d: Sum(rhs),rhsMax =  -1.07810982363787E-12  4.23092840953192E-01
 cg2d: Sum(rhs),rhsMax =  -1.59372515184941E-13  4.23232756753759E-01
 cg2d: Sum(rhs),rhsMax =   2.16951456799563E-13  4.23372194613481E-01
 cg2d: Sum(rhs),rhsMax =  -4.08048594913168E-13  4.23511049931369E-01
 cg2d: Sum(rhs),rhsMax =  -5.22235032995866E-13  4.23649210415255E-01
 cg2d: Sum(rhs),rhsMax =   6.38003538888654E-13  4.23786566834131E-01
 cg2d: Sum(rhs),rhsMax =  -6.64426846874733E-13  4.23923008540131E-01
 cg2d: Sum(rhs),rhsMax =  -1.55570001325600E-14  4.24058819232902E-01
 cg2d: Sum(rhs),rhsMax =  -2.94556046220862E-13  4.24192866373667E-01
 cg2d: Sum(rhs),rhsMax =  -4.64628335805628E-14  4.24326024915420E-01
 cg2d: Sum(rhs),rhsMax =  -2.75057754350883E-14  4.24457861616761E-01
 cg2d: Sum(rhs),rhsMax =  -4.70928851470376E-13  4.24588426753377E-01
 cg2d: Sum(rhs),rhsMax =   1.43510203720609E-13  4.24717627299665E-01
 cg2d: Sum(rhs),rhsMax =  -5.25787746674666E-13  4.24845442278946E-01
 cg2d: Sum(rhs),rhsMax =  -3.73534536635134E-13  4.24971847233837E-01
 cg2d: Sum(rhs),rhsMax =   1.51254009317370E-13  4.25096851574924E-01
 cg2d: Sum(rhs),rhsMax =  -8.92619311798626E-14  4.25220462879067E-01
 cg2d: Sum(rhs),rhsMax =   4.72441530341428E-13  4.25342726587866E-01
 cg2d: Sum(rhs),rhsMax =   5.78329051315052E-13  4.25463687171829E-01
 cg2d: Sum(rhs),rhsMax =   4.14113188185183E-14  4.25583684733760E-01
 cg2d: Sum(rhs),rhsMax =   2.22225016166533E-13  4.25702531266574E-01
 cg2d: Sum(rhs),rhsMax =  -3.67761376907083E-15  4.25820329080423E-01
 cg2d: Sum(rhs),rhsMax =  -3.94989596586015E-13  4.25937184747595E-01
 cg2d: Sum(rhs),rhsMax =   2.62595500899465E-13  4.26053215684839E-01
 cg2d: Sum(rhs),rhsMax =   2.34326447134947E-13  4.26168555635769E-01
 cg2d: Sum(rhs),rhsMax =   2.44984588171349E-13  4.26283329952353E-01
 cg2d: Sum(rhs),rhsMax =  -6.69186928092813E-14  4.26397669408356E-01
 cg2d: Sum(rhs),rhsMax =   1.97064586870965E-13  4.26511633896354E-01
 cg2d: Sum(rhs),rhsMax =   2.60444443789254E-13  4.26625326339731E-01
 cg2d: Sum(rhs),rhsMax =   9.53681578153009E-14  4.26738968574180E-01
 cg2d: Sum(rhs),rhsMax =   1.48853152026618E-13  4.26852745259183E-01
 cg2d: Sum(rhs),rhsMax =  -5.79716830095833E-13  4.26966655178199E-01
 cg2d: Sum(rhs),rhsMax =  -8.28365154248445E-13  4.27080722293287E-01
 cg2d: Sum(rhs),rhsMax =  -1.25344179480180E-13  4.27178479138352E-01
 cg2d: Sum(rhs),rhsMax =  -3.11334291680510E-13  4.27268535350742E-01
 cg2d: Sum(rhs),rhsMax =   3.66082164582338E-13  4.27359066394476E-01
 cg2d: Sum(rhs),rhsMax =  -2.03781436169947E-13  4.27450195025248E-01
 cg2d: Sum(rhs),rhsMax =   1.97897254139434E-14  4.27541853573845E-01
 cg2d: Sum(rhs),rhsMax =  -3.99139055140552E-13  4.27634056237305E-01
 cg2d: Sum(rhs),rhsMax =   3.38964967205868E-13  4.27726782620463E-01
 cg2d: Sum(rhs),rhsMax =   3.10723669016966E-14  4.27820098232604E-01
 cg2d: Sum(rhs),rhsMax =   1.41123224217665E-13  4.27914119471463E-01
 cg2d: Sum(rhs),rhsMax =   4.53803661315533E-14  4.28008498727625E-01
 cg2d: Sum(rhs),rhsMax =  -4.65322225196019E-13  4.28103136046488E-01
 cg2d: Sum(rhs),rhsMax =  -1.63896674010289E-13  4.28197936738868E-01
 cg2d: Sum(rhs),rhsMax =   1.34031674647872E-13  4.28292783890080E-01
 cg2d: Sum(rhs),rhsMax =  -2.80192535839774E-14  4.28392389175882E-01
 cg2d: Sum(rhs),rhsMax =   1.89709359332824E-14  4.28492403430095E-01
 cg2d: Sum(rhs),rhsMax =   2.63566946046012E-13  4.28592188795204E-01
 cg2d: Sum(rhs),rhsMax =  -1.05492004021102E-12  4.28691667820472E-01
 cg2d: Sum(rhs),rhsMax =  -9.59649026910370E-14  4.28790705168381E-01
 cg2d: Sum(rhs),rhsMax =   4.13030720736174E-13  4.28889294184717E-01
 cg2d: Sum(rhs),rhsMax =  -9.81992265280951E-14  4.28987101552581E-01
 cg2d: Sum(rhs),rhsMax =   2.95818924911373E-13  4.29084201799974E-01
 cg2d: Sum(rhs),rhsMax =  -4.57273108267486E-13  4.29180516343382E-01
 cg2d: Sum(rhs),rhsMax =  -5.54972734434500E-13  4.29276037776791E-01
 cg2d: Sum(rhs),rhsMax =  -6.97969460006220E-13  4.29370516886370E-01
 cg2d: Sum(rhs),rhsMax =   1.83936199604773E-13  4.29463905358194E-01
 cg2d: Sum(rhs),rhsMax =   4.29850599559245E-13  4.29556196709011E-01
 cg2d: Sum(rhs),rhsMax =  -2.23612794947314E-13  4.29647423929732E-01
 cg2d: Sum(rhs),rhsMax =  -6.80761003124530E-13  4.29737632475271E-01
 cg2d: Sum(rhs),rhsMax =   4.61727878153795E-13  4.29826890432144E-01
 cg2d: Sum(rhs),rhsMax =   2.11400341676438E-13  4.29915275343096E-01
 cg2d: Sum(rhs),rhsMax =  -2.72767919362593E-13  4.30002878766176E-01
 cg2d: Sum(rhs),rhsMax =  -1.36057831667813E-13  4.30094099037880E-01
 cg2d: Sum(rhs),rhsMax =  -7.07892078288808E-13  4.30206480677569E-01
 cg2d: Sum(rhs),rhsMax =   6.87505607999128E-14  4.30318752116237E-01
 cg2d: Sum(rhs),rhsMax =  -1.56888391167342E-13  4.30430083123460E-01
 cg2d: Sum(rhs),rhsMax =  -5.66213742558830E-14  4.30540838981933E-01
 cg2d: Sum(rhs),rhsMax =  -8.10740363732521E-14  4.30651034313689E-01
 cg2d: Sum(rhs),rhsMax =  -1.43982048506075E-13  4.30760705059127E-01
 cg2d: Sum(rhs),rhsMax =  -4.77951012101130E-13  4.30869892455294E-01
 cg2d: Sum(rhs),rhsMax =  -8.07270916780567E-14  4.30978616800508E-01
 cg2d: Sum(rhs),rhsMax =  -1.36030076092197E-13  4.31086735922700E-01
 cg2d: Sum(rhs),rhsMax =  -1.48478451755807E-13  4.31194453410386E-01
 cg2d: Sum(rhs),rhsMax =   7.34412530789541E-14  4.31262905385963E-01
 cg2d: Sum(rhs),rhsMax =   2.93653990013354E-14  4.31314630739301E-01
 cg2d: Sum(rhs),rhsMax =  -9.77412595304372E-14  4.31365873093387E-01
 cg2d: Sum(rhs),rhsMax =  -3.21034865358172E-13  4.31416759921341E-01
 cg2d: Sum(rhs),rhsMax =  -1.82909243306995E-14  4.31467233612116E-01
 cg2d: Sum(rhs),rhsMax =  -4.12447853648246E-14  4.31517349455529E-01
 cg2d: Sum(rhs),rhsMax =   1.89709359332824E-14  4.31567186962893E-01
 cg2d: Sum(rhs),rhsMax =  -2.92002533264224E-13  4.31616766312248E-01
 cg2d: Sum(rhs),rhsMax =   3.57408547202454E-13  4.31666111098985E-01
 cg2d: Sum(rhs),rhsMax =  -1.97619698383278E-13  4.31715217337617E-01
 cg2d: Sum(rhs),rhsMax =   6.17825235416092E-13  4.31764081908464E-01
 cg2d: Sum(rhs),rhsMax =   1.55056523176711E-13  4.31812676240815E-01
 cg2d: Sum(rhs),rhsMax =  -8.90953977261688E-15  4.31860967277696E-01
 cg2d: Sum(rhs),rhsMax =  -5.62813684545915E-13  4.31908922221077E-01
 cg2d: Sum(rhs),rhsMax =   4.31349400642489E-13  4.31956501590726E-01
 cg2d: Sum(rhs),rhsMax =   2.78860268210224E-13  4.32003662653056E-01
 cg2d: Sum(rhs),rhsMax =   1.25788268690030E-13  4.32050379196294E-01
 cg2d: Sum(rhs),rhsMax =  -3.96793709001031E-13  4.32096597667404E-01
 cg2d: Sum(rhs),rhsMax =  -4.74786876480948E-13  4.32142285317978E-01
 cg2d: Sum(rhs),rhsMax =  -2.17145745828873E-13  4.32187398693357E-01
 cg2d: Sum(rhs),rhsMax =   2.87228574258336E-13  4.32231938825011E-01
 cg2d: Sum(rhs),rhsMax =   8.09394218315163E-13  4.32275887517840E-01
 cg2d: Sum(rhs),rhsMax =   4.43547976125558E-13  4.32319652169404E-01
 cg2d: Sum(rhs),rhsMax =  -1.37209688055862E-13  4.32362899618462E-01
 cg2d: Sum(rhs),rhsMax =   1.34878219704149E-13  4.32405633672009E-01
 cg2d: Sum(rhs),rhsMax =  -1.21805343589187E-13  4.32447885991361E-01
 cg2d: Sum(rhs),rhsMax =   4.39884240144295E-13  4.32489689111536E-01
 cg2d: Sum(rhs),rhsMax =   1.63952185161520E-13  4.32531109801345E-01
 cg2d: Sum(rhs),rhsMax =   2.53144727402344E-13  4.32572186362255E-01
 cg2d: Sum(rhs),rhsMax =   1.54043444666740E-15  4.32612974945265E-01
 cg2d: Sum(rhs),rhsMax =   3.58227336683115E-13  4.32653530493596E-01
 cg2d: Sum(rhs),rhsMax =   1.16573417585641E-15  4.32693904371365E-01
 cg2d: Sum(rhs),rhsMax =   2.01547112332889E-13  4.32734147682161E-01
 cg2d: Sum(rhs),rhsMax =  -2.22766249891038E-13  4.32774308336163E-01
 cg2d: Sum(rhs),rhsMax =   6.98191504611145E-14  4.32814422887776E-01
 cg2d: Sum(rhs),rhsMax =  -4.51361170661357E-13  4.32854516943065E-01
 cg2d: Sum(rhs),rhsMax =   7.49400541621981E-16  4.32894744716214E-01
 cg2d: Sum(rhs),rhsMax =   2.21322959959025E-13  4.32935336350042E-01
 cg2d: Sum(rhs),rhsMax =   6.54060139382295E-14  4.32976287019821E-01
 cg2d: Sum(rhs),rhsMax =   1.19265708420357E-13  4.33017532584502E-01
 cg2d: Sum(rhs),rhsMax =  -1.68254299381942E-13  4.33059039820823E-01
 cg2d: Sum(rhs),rhsMax =  -4.49057457885260E-13  4.33100779063194E-01
 cg2d: Sum(rhs),rhsMax =  -2.34812169708221E-13  4.33142623064361E-01
 cg2d: Sum(rhs),rhsMax =  -4.00193767013945E-13  4.33184687686221E-01
 cg2d: Sum(rhs),rhsMax =  -3.05463987437804E-13  4.33226807730686E-01
 cg2d: Sum(rhs),rhsMax =   3.58602036953926E-13  4.33268903462040E-01
 cg2d: Sum(rhs),rhsMax =  -2.70020117376646E-13  4.33310929176229E-01
 cg2d: Sum(rhs),rhsMax =  -1.16018306073329E-14  4.33355272117747E-01
 cg2d: Sum(rhs),rhsMax =  -3.65402152979755E-14  4.33399410367365E-01
 cg2d: Sum(rhs),rhsMax =  -1.24178445304324E-13  4.33443223059074E-01
 cg2d: Sum(rhs),rhsMax =  -4.17541001773714E-13  4.33486621567951E-01
 cg2d: Sum(rhs),rhsMax =  -5.54001289287953E-14  4.33529497157851E-01
 cg2d: Sum(rhs),rhsMax =  -3.73590047786365E-14  4.33571779159213E-01
 cg2d: Sum(rhs),rhsMax =  -9.62147028715776E-14  4.33613393238544E-01
 cg2d: Sum(rhs),rhsMax =   2.43874365146723E-13  4.33654302857510E-01
 cg2d: Sum(rhs),rhsMax =   6.25055562863963E-14  4.33694459560885E-01
 cg2d: Sum(rhs),rhsMax =  -3.37743721878780E-13  4.33733867582229E-01
 cg2d: Sum(rhs),rhsMax =  -2.59098298371896E-13  4.33772522146027E-01
 cg2d: Sum(rhs),rhsMax =   1.04014019619569E-13  4.33814246083663E-01
 cg2d: Sum(rhs),rhsMax =   2.75196532228961E-14  4.33855302637498E-01
 cg2d: Sum(rhs),rhsMax =  -4.42465508676548E-13  4.33895708230530E-01
 cg2d: Sum(rhs),rhsMax =  -3.43516881606831E-13  4.33935525326955E-01
 cg2d: Sum(rhs),rhsMax =  -3.99583144350402E-13  4.33974829165313E-01
 cg2d: Sum(rhs),rhsMax =  -1.80272463623510E-14  4.34013680650544E-01
 cg2d: Sum(rhs),rhsMax =  -2.46330733588707E-14  4.34052166528810E-01
 cg2d: Sum(rhs),rhsMax =  -8.20010725988141E-13  4.34090374297529E-01
 cg2d: Sum(rhs),rhsMax =   1.66103242271731E-13  4.34128405064328E-01
 cg2d: Sum(rhs),rhsMax =   6.02032312890799E-13  4.34166349542628E-01
 cg2d: Sum(rhs),rhsMax =   1.06151198941973E-13  4.34204313243574E-01
 cg2d: Sum(rhs),rhsMax =  -2.31162311514765E-13  4.34242404785897E-01
 cg2d: Sum(rhs),rhsMax =  -6.22335516453631E-13  4.34280721686227E-01
 cg2d: Sum(rhs),rhsMax =   9.43828348809461E-14  4.34319337566592E-01
 cg2d: Sum(rhs),rhsMax =  -1.31741839659583E-13  4.34358341805621E-01
 cg2d: Sum(rhs),rhsMax =  -7.35453364875127E-13  4.34397766928316E-01
 cg2d: Sum(rhs),rhsMax =   8.08381139805192E-14  4.34437675519456E-01
 cg2d: Sum(rhs),rhsMax =  -5.37903055430888E-14  4.34478089584818E-01
 cg2d: Sum(rhs),rhsMax =  -1.74554815046690E-13  4.34519026626718E-01
 cg2d: Sum(rhs),rhsMax =   4.26311763668252E-13  4.34560471063558E-01
 cg2d: Sum(rhs),rhsMax =   3.26988436327724E-13  4.34602427679231E-01
 cg2d: Sum(rhs),rhsMax =   2.25888752147796E-13  4.34644842843147E-01
 cg2d: Sum(rhs),rhsMax =  -2.63455923743550E-13  4.34687744369550E-01
 cg2d: Sum(rhs),rhsMax =   1.03653197136566E-13  4.34730937737532E-01
 cg2d: Sum(rhs),rhsMax =  -1.95135574365679E-13  4.34774442373259E-01
 cg2d: Sum(rhs),rhsMax =   2.66467403697845E-13  4.34818156792364E-01
 cg2d: Sum(rhs),rhsMax =   4.19206336310651E-13  4.34862090065895E-01
 cg2d: Sum(rhs),rhsMax =   5.54417622922188E-14  4.34906081956331E-01
 cg2d: Sum(rhs),rhsMax =  -9.89486270697171E-15  4.34950020162154E-01
 cg2d: Sum(rhs),rhsMax =  -2.67411093268777E-13  4.34993837344548E-01
 cg2d: Sum(rhs),rhsMax =  -2.77555756156289E-17  4.35037448189590E-01
 cg2d: Sum(rhs),rhsMax =   5.21221954485895E-13  4.35080771104059E-01
 cg2d: Sum(rhs),rhsMax =   5.50615109062846E-13  4.35123736794732E-01
 cg2d: Sum(rhs),rhsMax =  -2.86187740172750E-13  4.35166259383665E-01
 cg2d: Sum(rhs),rhsMax =  -7.85066456288064E-14  4.35208292247859E-01
 cg2d: Sum(rhs),rhsMax =  -2.25264251696444E-13  4.35249792259606E-01
 cg2d: Sum(rhs),rhsMax =  -9.03582764166799E-14  4.35290721983365E-01
 cg2d: Sum(rhs),rhsMax =   1.53654866608122E-13  4.35331068949199E-01
 cg2d: Sum(rhs),rhsMax =  -3.71605524129848E-13  4.35370817745159E-01
 cg2d: Sum(rhs),rhsMax =   2.70922173584154E-13  4.35409988365228E-01
 cg2d: Sum(rhs),rhsMax =   8.84903261777481E-13  4.35448594066435E-01
 cg2d: Sum(rhs),rhsMax =   1.28591581827209E-13  4.35486683711613E-01
 cg2d: Sum(rhs),rhsMax =   2.89032686673352E-13  4.35524295593983E-01
 cg2d: Sum(rhs),rhsMax =  -9.68669588985449E-14  4.35561510229362E-01
 cg2d: Sum(rhs),rhsMax =   4.83030282438790E-13  4.35598374109000E-01
 cg2d: Sum(rhs),rhsMax =   2.45956033317896E-13  4.35634992052069E-01
 cg2d: Sum(rhs),rhsMax =   2.23335239191158E-13  4.35671393619565E-01
 cg2d: Sum(rhs),rhsMax =  -3.20021786848201E-14  4.35707648579884E-01
 cg2d: Sum(rhs),rhsMax =   2.10942374678780E-14  4.35743823485008E-01
 cg2d: Sum(rhs),rhsMax =   4.55940840637936E-13  4.35780044942987E-01
 cg2d: Sum(rhs),rhsMax =  -5.25385290828240E-13  4.35816375742358E-01
 cg2d: Sum(rhs),rhsMax =   2.53769227853695E-13  4.35852933497944E-01
 cg2d: Sum(rhs),rhsMax =  -3.28667648652470E-13  4.35889767988421E-01
 cg2d: Sum(rhs),rhsMax =   6.41431352477184E-14  4.35926980636181E-01
 cg2d: Sum(rhs),rhsMax =  -4.03801991843977E-13  4.35964597978945E-01
 cg2d: Sum(rhs),rhsMax =  -3.26641491632529E-13  4.36002702144039E-01
 cg2d: Sum(rhs),rhsMax =  -1.91360816081954E-13  4.36041291744255E-01
 cg2d: Sum(rhs),rhsMax =   6.59083898568724E-13  4.36080418547679E-01
 cg2d: Sum(rhs),rhsMax =  -1.52933221642115E-14  4.36120046594762E-01
 cg2d: Sum(rhs),rhsMax =  -4.38593605878168E-13  4.36160151513734E-01
 cg2d: Sum(rhs),rhsMax =   2.73434053177368E-13  4.36200643182486E-01
 cg2d: Sum(rhs),rhsMax =   4.71012118197223E-14  4.36241518504651E-01
 cg2d: Sum(rhs),rhsMax =  -1.32838184896400E-13  4.36282685064203E-01
 cg2d: Sum(rhs),rhsMax =  -2.62651012050696E-13  4.36324123679336E-01
 cg2d: Sum(rhs),rhsMax =   1.13506426480114E-13  4.36365721297632E-01
 cg2d: Sum(rhs),rhsMax =   3.33899574656016E-13  4.36407448697643E-01
 cg2d: Sum(rhs),rhsMax =  -3.29167249013551E-13  4.36449182991322E-01
 cg2d: Sum(rhs),rhsMax =  -1.79897763352699E-13  4.36490889340468E-01
 cg2d: Sum(rhs),rhsMax =  -2.98788771502245E-14  4.36506130108874E-01
 cg2d: Sum(rhs),rhsMax =   4.34124958204052E-13  4.36520798233527E-01
 cg2d: Sum(rhs),rhsMax =  -6.18949336228525E-15  4.36535914453553E-01
 cg2d: Sum(rhs),rhsMax =  -4.73926453636864E-14  4.36551196721371E-01
 cg2d: Sum(rhs),rhsMax =   4.10171896447764E-13  4.36566765804803E-01
 cg2d: Sum(rhs),rhsMax =   2.73392419813945E-14  4.36582701060280E-01
 cg2d: Sum(rhs),rhsMax =  -1.65076285973953E-13  4.36599035438805E-01
 cg2d: Sum(rhs),rhsMax =  -5.80646641878957E-14  4.36615863852068E-01
 cg2d: Sum(rhs),rhsMax =   9.38138455808257E-15  4.36633190231673E-01
 cg2d: Sum(rhs),rhsMax =   7.14275860680402E-13  4.36651091214686E-01
 cg2d: Sum(rhs),rhsMax =   2.33132957383475E-13  4.36669577582688E-01
 cg2d: Sum(rhs),rhsMax =  -2.76223488526739E-13  4.36688704073300E-01
 cg2d: Sum(rhs),rhsMax =  -1.01724184631280E-14  4.36708458287345E-01
 cg2d: Sum(rhs),rhsMax =   3.07948111455403E-14  4.36728797064392E-01
 cg2d: Sum(rhs),rhsMax =   3.28112537140157E-13  4.36749690021036E-01
 cg2d: Sum(rhs),rhsMax =   6.65148491840739E-13  4.36771183790923E-01
 cg2d: Sum(rhs),rhsMax =  -3.92214039024452E-13  4.36793241265761E-01
 cg2d: Sum(rhs),rhsMax =  -2.13440376484186E-13  4.36815966778677E-01
 cg2d: Sum(rhs),rhsMax =   9.92678161892968E-14  4.36839252355225E-01
 cg2d: Sum(rhs),rhsMax =  -4.12850309494672E-13  4.36863108821322E-01
 cg2d: Sum(rhs),rhsMax =   2.36033415035308E-13  4.36887489919243E-01
 cg2d: Sum(rhs),rhsMax =  -1.24261712031171E-13  4.36912406726125E-01
 cg2d: Sum(rhs),rhsMax =   2.66175970153881E-14  4.36937796547289E-01
 cg2d: Sum(rhs),rhsMax =  -5.12964670740246E-13  4.36963671939371E-01
 cg2d: Sum(rhs),rhsMax =  -1.45286560560010E-13  4.36980416104385E-01
 cg2d: Sum(rhs),rhsMax =  -2.79429257510344E-13  4.36968202859742E-01
 cg2d: Sum(rhs),rhsMax =   3.20993231994748E-13  4.36955818821614E-01
 cg2d: Sum(rhs),rhsMax =  -2.97942226445969E-13  4.36944370529743E-01
 cg2d: Sum(rhs),rhsMax =   7.76323449969141E-14  4.36933370260974E-01
 cg2d: Sum(rhs),rhsMax =  -9.18015663486926E-14  4.36922581604782E-01
 cg2d: Sum(rhs),rhsMax =  -2.35422792371764E-13  4.36912143832391E-01
 cg2d: Sum(rhs),rhsMax =  -2.67535993359047E-13  4.36902072304327E-01
 cg2d: Sum(rhs),rhsMax =  -5.85642645489770E-15  4.36892267560112E-01
 cg2d: Sum(rhs),rhsMax =   2.63539190470397E-13  4.36882676614139E-01
 cg2d: Sum(rhs),rhsMax =   2.59237076249974E-13  4.36873165935883E-01
 cg2d: Sum(rhs),rhsMax =   1.27106658531773E-13  4.36863711813421E-01
 cg2d: Sum(rhs),rhsMax =   9.28840337977022E-14  4.36854208874523E-01
 cg2d: Sum(rhs),rhsMax =   7.51898543427387E-14  4.36844639627634E-01
 cg2d: Sum(rhs),rhsMax =   3.20576898360514E-14  4.36834896273750E-01
 cg2d: Sum(rhs),rhsMax =   1.65881197666806E-13  4.36824982988572E-01
 cg2d: Sum(rhs),rhsMax =   3.40880101923347E-13  4.36816625296859E-01
 cg2d: Sum(rhs),rhsMax =  -2.02185490572049E-13  4.36808014799191E-01
 cg2d: Sum(rhs),rhsMax =   3.47916140341908E-14  4.36798987193427E-01
 cg2d: Sum(rhs),rhsMax =  -3.89244192433580E-13  4.36789579654900E-01
 cg2d: Sum(rhs),rhsMax =   1.00766617272541E-13  4.36779720751463E-01
 cg2d: Sum(rhs),rhsMax =   1.42691414239948E-13  4.36769408680082E-01
 cg2d: Sum(rhs),rhsMax =   5.50309797731074E-13  4.36758634948239E-01
 cg2d: Sum(rhs),rhsMax =  -1.36696209906972E-14  4.36747438835290E-01
 cg2d: Sum(rhs),rhsMax =   5.90777426978661E-14  4.36735685343807E-01
 cg2d: Sum(rhs),rhsMax =  -1.47812317941032E-13  4.36723458781729E-01
 cg2d: Sum(rhs),rhsMax =   3.21950799353488E-13  4.36710758155375E-01
 cg2d: Sum(rhs),rhsMax =  -2.87866952497495E-13  4.36697654921648E-01
 cg2d: Sum(rhs),rhsMax =  -1.51212375953946E-13  4.36684188481852E-01
 cg2d: Sum(rhs),rhsMax =  -2.34895436435067E-13  4.36670433457224E-01
 cg2d: Sum(rhs),rhsMax =   1.87627691161651E-13  4.36656460825628E-01
 cg2d: Sum(rhs),rhsMax =  -1.61148872024341E-13  4.36642349538565E-01
 cg2d: Sum(rhs),rhsMax =  -1.70904956853235E-13  4.36628193331585E-01
 cg2d: Sum(rhs),rhsMax =  -4.59021709531271E-13  4.36614068746901E-01
 cg2d: Sum(rhs),rhsMax =  -7.46208650426183E-14  4.36600054850540E-01
 cg2d: Sum(rhs),rhsMax =   5.93081139754759E-13  4.36546644769258E-01
 cg2d: Sum(rhs),rhsMax =  -1.18655085756814E-14  4.36492782142176E-01
 cg2d: Sum(rhs),rhsMax =   2.47885045823182E-13  4.36440153660117E-01
 cg2d: Sum(rhs),rhsMax =  -3.52606832620950E-13  4.36388447531191E-01
 cg2d: Sum(rhs),rhsMax =  -5.17308418324092E-13  4.36337968890964E-01
 cg2d: Sum(rhs),rhsMax =  -9.38138455808257E-15  4.36288844746600E-01
 cg2d: Sum(rhs),rhsMax =  -4.26603197212216E-14  4.36241249876557E-01
 cg2d: Sum(rhs),rhsMax =  -5.26662047306559E-14  4.36195261579221E-01
 cg2d: Sum(rhs),rhsMax =  -1.01252339845814E-13  4.36150930273077E-01
 cg2d: Sum(rhs),rhsMax =   3.19189119579733E-14  4.36108318813059E-01
 cg2d: Sum(rhs),rhsMax =   5.47617506896358E-14  4.36067387774189E-01
 cg2d: Sum(rhs),rhsMax =   5.82742187837937E-13  4.36028073965192E-01
 cg2d: Sum(rhs),rhsMax =   1.17350573702879E-13  4.35990312109229E-01
 cg2d: Sum(rhs),rhsMax =  -8.65835181329544E-14  4.35953968576305E-01
 cg2d: Sum(rhs),rhsMax =  -3.54313800521311E-13  4.35918909448504E-01
 cg2d: Sum(rhs),rhsMax =   2.89157586763622E-13  4.35884920343554E-01
 cg2d: Sum(rhs),rhsMax =   2.98691626987591E-13  4.35851908404196E-01
 cg2d: Sum(rhs),rhsMax =   1.73000502812215E-13  4.35819647332238E-01
 cg2d: Sum(rhs),rhsMax =   2.74974487624036E-13  4.35787951276589E-01
 cg2d: Sum(rhs),rhsMax =   1.90875093508680E-13  4.35756599132069E-01
 cg2d: Sum(rhs),rhsMax =  -2.26499374811340E-13  4.35725412553647E-01
 cg2d: Sum(rhs),rhsMax =   5.53723733531797E-14  4.35694173227097E-01
 cg2d: Sum(rhs),rhsMax =  -2.05460648494693E-13  4.35662709143964E-01
 cg2d: Sum(rhs),rhsMax =   2.18255968853498E-13  4.35630798154157E-01
 cg2d: Sum(rhs),rhsMax =  -1.48492329543615E-15  4.35598359241179E-01
 cg2d: Sum(rhs),rhsMax =   1.63827285071250E-13  4.35565220045141E-01
 cg2d: Sum(rhs),rhsMax =   2.77861067488061E-13  4.35531280217902E-01
 cg2d: Sum(rhs),rhsMax =   1.67130198569510E-13  4.35496442170534E-01
 cg2d: Sum(rhs),rhsMax =   6.60721477530046E-14  4.35460645613762E-01
 cg2d: Sum(rhs),rhsMax =   3.94448362861510E-13  4.35423837121998E-01
 cg2d: Sum(rhs),rhsMax =  -1.32671651442706E-13  4.35386010420881E-01
 cg2d: Sum(rhs),rhsMax =  -1.27953203588049E-14  4.35347160511050E-01
 cg2d: Sum(rhs),rhsMax =  -2.77555756156289E-13  4.35307330217683E-01
 cg2d: Sum(rhs),rhsMax =   1.33282274106250E-13  4.35266689907054E-01
 cg2d: Sum(rhs),rhsMax =   4.15903422812391E-13  4.35225032180650E-01
 cg2d: Sum(rhs),rhsMax =   2.11108908132474E-13  4.35182586115978E-01
 cg2d: Sum(rhs),rhsMax =  -1.44606548957427E-14  4.35139808324324E-01
 cg2d: Sum(rhs),rhsMax =   2.16826556709293E-13  4.35096408334256E-01
 cg2d: Sum(rhs),rhsMax =  -2.46885845101019E-14  4.35052766109905E-01
 cg2d: Sum(rhs),rhsMax =  -3.04867242562068E-13  4.35009071488074E-01
 cg2d: Sum(rhs),rhsMax =  -2.73253641935867E-13  4.34965488516789E-01
 cg2d: Sum(rhs),rhsMax =   3.63570284989123E-13  4.34922214645067E-01
 cg2d: Sum(rhs),rhsMax =   4.71470085194881E-13  4.34879367403661E-01
 cg2d: Sum(rhs),rhsMax =   2.92432744686266E-13  4.34836994936482E-01
 cg2d: Sum(rhs),rhsMax =  -1.43177136813222E-13  4.34869556702760E-01
 cg2d: Sum(rhs),rhsMax =   1.20625731625523E-13  4.34912287853297E-01
 cg2d: Sum(rhs),rhsMax =  -2.44262943205342E-13  4.34955023278604E-01
 cg2d: Sum(rhs),rhsMax =  -7.24323379053260E-13  4.34997570308077E-01
 cg2d: Sum(rhs),rhsMax =  -1.96065386148803E-13  4.35039744554174E-01
 cg2d: Sum(rhs),rhsMax =  -9.62840918106167E-14  4.35081390154546E-01
 cg2d: Sum(rhs),rhsMax =   3.52121110047676E-13  4.35122285899243E-01
 cg2d: Sum(rhs),rhsMax =   2.63969401892439E-13  4.35162344508391E-01
 cg2d: Sum(rhs),rhsMax =   4.07576750127703E-13  4.35201346731640E-01
 cg2d: Sum(rhs),rhsMax =   3.11514702922011E-13  4.35239192812947E-01
 cg2d: Sum(rhs),rhsMax =  -1.23058507828233E-12  4.35275763290508E-01
 cg2d: Sum(rhs),rhsMax =   1.38916655956223E-13  4.35310984404033E-01
 cg2d: Sum(rhs),rhsMax =   3.11001224773122E-14  4.35344800076812E-01
 cg2d: Sum(rhs),rhsMax =   2.20601314993019E-13  4.35377213117836E-01
 cg2d: Sum(rhs),rhsMax =  -7.03492819553730E-13  4.35408192442932E-01
 cg2d: Sum(rhs),rhsMax =  -4.28587720868734E-13  4.35437782080811E-01
 cg2d: Sum(rhs),rhsMax =  -7.91991472404163E-13  4.35466080032460E-01
 cg2d: Sum(rhs),rhsMax =   2.99080205046209E-13  4.35493168759927E-01
 cg2d: Sum(rhs),rhsMax =   2.01991201542739E-13  4.35519183509047E-01
 cg2d: Sum(rhs),rhsMax =  -2.32106001085697E-13  4.35544263984494E-01
 cg2d: Sum(rhs),rhsMax =  -3.97223920423073E-13  4.35568579606167E-01
 cg2d: Sum(rhs),rhsMax =  -3.70078967470988E-13  4.35592334597380E-01
 cg2d: Sum(rhs),rhsMax =  -1.29340982368831E-14  4.35615644185169E-01
 cg2d: Sum(rhs),rhsMax =  -2.56045185054177E-13  4.35638758362195E-01
 cg2d: Sum(rhs),rhsMax =  -2.76445533131664E-13  4.35661832059467E-01
 cg2d: Sum(rhs),rhsMax =  -7.34731719909121E-13  4.35685037841217E-01
 cg2d: Sum(rhs),rhsMax =  -3.01009217551496E-13  4.35708532701303E-01
 cg2d: Sum(rhs),rhsMax =  -1.51739731890643E-13  4.35732468590734E-01
 cg2d: Sum(rhs),rhsMax =   1.69655955950532E-13  4.35756970240564E-01
 cg2d: Sum(rhs),rhsMax =   2.78166378819833E-13  4.35729286305087E-01
 cg2d: Sum(rhs),rhsMax =   9.55902024202260E-14  4.35653465037488E-01
 cg2d: Sum(rhs),rhsMax =  -4.99475460991050E-13  4.35578251872512E-01
 cg2d: Sum(rhs),rhsMax =  -6.90975054951082E-14  4.35504522785235E-01
 cg2d: Sum(rhs),rhsMax =   1.12965192755610E-13  4.35431813538628E-01
 cg2d: Sum(rhs),rhsMax =  -7.25391968714462E-14  4.35360208349463E-01
 cg2d: Sum(rhs),rhsMax =  -4.54164483798536E-13  4.35289598106744E-01
 cg2d: Sum(rhs),rhsMax =  -3.92463839204993E-13  4.35219892736338E-01
 cg2d: Sum(rhs),rhsMax =  -3.31706884182381E-13  4.35150939648444E-01
 cg2d: Sum(rhs),rhsMax =   3.18800541521114E-13  4.35082557608405E-01
 cg2d: Sum(rhs),rhsMax =  -2.04281036531029E-13  4.35014528241691E-01
 cg2d: Sum(rhs),rhsMax =  -6.94583279781114E-14  4.34946626958993E-01
 cg2d: Sum(rhs),rhsMax =  -1.05193631583234E-14  4.34878609438598E-01
 cg2d: Sum(rhs),rhsMax =   1.43676737174303E-13  4.34810227684473E-01
 cg2d: Sum(rhs),rhsMax =  -8.02691246803988E-14  4.34741252578617E-01
 cg2d: Sum(rhs),rhsMax =  -5.33170729788424E-13  4.34671301658917E-01
 cg2d: Sum(rhs),rhsMax =   2.88505330736655E-13  4.34600290036682E-01
 cg2d: Sum(rhs),rhsMax =   7.51204654036997E-14  4.34528007782055E-01
 cg2d: Sum(rhs),rhsMax =   2.20809481810136E-13  4.34454271122574E-01
 cg2d: Sum(rhs),rhsMax =   7.13318293321663E-15  4.34378925996922E-01
 cg2d: Sum(rhs),rhsMax =   2.88949419946505E-13  4.34301869880254E-01
 cg2d: Sum(rhs),rhsMax =  -1.85185200507476E-13  4.34223046925643E-01
 cg2d: Sum(rhs),rhsMax =  -7.88119569605783E-14  4.34142599706833E-01
 cg2d: Sum(rhs),rhsMax =   1.09537379167080E-13  4.34060463815937E-01
 cg2d: Sum(rhs),rhsMax =  -8.19622147929522E-14  4.33976605592887E-01
 cg2d: Sum(rhs),rhsMax =   2.48301379457416E-13  4.33891199693622E-01
 cg2d: Sum(rhs),rhsMax =  -5.21221954485895E-13  4.33804397940334E-01
 cg2d: Sum(rhs),rhsMax =  -1.36141098394660E-13  4.33716375438519E-01
 cg2d: Sum(rhs),rhsMax =  -4.09269840240256E-13  4.33627346380270E-01
 cg2d: Sum(rhs),rhsMax =  -1.70280456401883E-14  4.33537532612662E-01
 cg2d: Sum(rhs),rhsMax =  -2.50285903113934E-13  4.33447184994300E-01
 cg2d: Sum(rhs),rhsMax =   2.44013143024802E-13  4.33356546593569E-01
 cg2d: Sum(rhs),rhsMax =  -1.65256697215455E-13  4.33266085009715E-01
 cg2d: Sum(rhs),rhsMax =  -3.04825609198645E-13  4.33175542624866E-01
 cg2d: Sum(rhs),rhsMax =  -2.27262653140770E-13  4.33085467090996E-01
 cg2d: Sum(rhs),rhsMax =  -1.76664238793478E-13  4.32996079957220E-01
 cg2d: Sum(rhs),rhsMax =  -1.39083189409916E-13  4.32907511633830E-01
 cg2d: Sum(rhs),rhsMax =   3.27390892174151E-13  4.32819942205856E-01
 cg2d: Sum(rhs),rhsMax =  -4.06993883039775E-13  4.32733488453426E-01
 cg2d: Sum(rhs),rhsMax =  -2.67605382298086E-13  4.32648241170045E-01
 cg2d: Sum(rhs),rhsMax =   2.91669466356836E-13  4.32564248603712E-01
 cg2d: Sum(rhs),rhsMax =   6.25832718981201E-13  4.32481516016230E-01
 cg2d: Sum(rhs),rhsMax =   4.11337630623620E-13  4.32400012876288E-01
 cg2d: Sum(rhs),rhsMax =   1.88987714366817E-13  4.32319668713692E-01
 cg2d: Sum(rhs),rhsMax =   3.00592883917261E-14  4.32240375115985E-01
 cg2d: Sum(rhs),rhsMax =   6.46149800331841E-14  4.32161990482264E-01
 cg2d: Sum(rhs),rhsMax =   3.98930888323434E-13  4.32084339394660E-01
 cg2d: Sum(rhs),rhsMax =   3.03784775113058E-14  4.32007457021263E-01
 cg2d: Sum(rhs),rhsMax =   3.29361538042861E-13  4.31931326968171E-01
 cg2d: Sum(rhs),rhsMax =   5.42205169651311E-13  4.31855042794348E-01
 cg2d: Sum(rhs),rhsMax =   3.15206194478890E-13  4.31778627183321E-01
 cg2d: Sum(rhs),rhsMax =  -2.66023314487995E-13  4.31701859642413E-01
 cg2d: Sum(rhs),rhsMax =  -4.50736670210006E-13  4.31624510893937E-01
 cg2d: Sum(rhs),rhsMax =   1.84643966782971E-13  4.31546374640420E-01
 cg2d: Sum(rhs),rhsMax =   2.77278200400133E-14  4.31467237176167E-01
 cg2d: Sum(rhs),rhsMax =  -1.92915128316429E-13  4.31386949373520E-01
 cg2d: Sum(rhs),rhsMax =  -2.74918976472804E-14  4.31305300218893E-01
 cg2d: Sum(rhs),rhsMax =  -5.29257193626620E-13  4.31222195917638E-01
 cg2d: Sum(rhs),rhsMax =  -4.05508959744338E-14  4.31137485809591E-01
 cg2d: Sum(rhs),rhsMax =   1.66838765025545E-13  4.31051165203677E-01
 cg2d: Sum(rhs),rhsMax =   5.65061886170781E-13  4.30963137550957E-01
 cg2d: Sum(rhs),rhsMax =  -1.17725273973690E-13  4.30873452213498E-01
 cg2d: Sum(rhs),rhsMax =   1.83450477031499E-13  4.30782052991516E-01
 cg2d: Sum(rhs),rhsMax =  -2.22460938559266E-13  4.30689104731846E-01
 cg2d: Sum(rhs),rhsMax =  -2.11317074949591E-13  4.30594639607021E-01
 cg2d: Sum(rhs),rhsMax =   1.00669472757886E-13  4.30498882289517E-01
 cg2d: Sum(rhs),rhsMax =  -3.41823791494278E-13  4.30401923409420E-01
 cg2d: Sum(rhs),rhsMax =  -1.08774100837650E-13  4.30304042492620E-01
 cg2d: Sum(rhs),rhsMax =   9.10244102314550E-14  4.30205359643208E-01
 cg2d: Sum(rhs),rhsMax =  -1.15379927834169E-13  4.30106181699545E-01
 cg2d: Sum(rhs),rhsMax =   1.49158463358390E-13  4.30006535460859E-01
 cg2d: Sum(rhs),rhsMax =  -3.98958643899050E-13  4.29906872777684E-01
 cg2d: Sum(rhs),rhsMax =   8.86513085163187E-14  4.29807261277389E-01
 cg2d: Sum(rhs),rhsMax =   7.12430114901963E-13  4.29707975193747E-01
 cg2d: Sum(rhs),rhsMax =   1.41595069003131E-13  4.29608736695919E-01
 cg2d: Sum(rhs),rhsMax =   6.01199645622330E-13  4.29510638530102E-01
 cg2d: Sum(rhs),rhsMax =   2.28150831560470E-14  4.29413126181764E-01
 cg2d: Sum(rhs),rhsMax =   8.98864316312142E-14  4.29316394223287E-01
 cg2d: Sum(rhs),rhsMax =  -2.81566436832748E-13  4.29220523992831E-01
 cg2d: Sum(rhs),rhsMax =   6.98344160277031E-13  4.29127073255728E-01
 cg2d: Sum(rhs),rhsMax =   3.83026943495679E-15  4.29034770501660E-01
 cg2d: Sum(rhs),rhsMax =  -2.32022734358850E-13  4.28943227644654E-01
 cg2d: Sum(rhs),rhsMax =   3.21256909963097E-13  4.28852280771612E-01
 cg2d: Sum(rhs),rhsMax =  -1.43732248325534E-13  4.28761741380224E-01
 cg2d: Sum(rhs),rhsMax =  -2.97872837506929E-13  4.28684728327974E-01
 cg2d: Sum(rhs),rhsMax =  -9.55624468446103E-14  4.28607405357982E-01
 cg2d: Sum(rhs),rhsMax =  -1.76109127281165E-13  4.28529253386980E-01
 cg2d: Sum(rhs),rhsMax =  -1.49061318843735E-13  4.28450174137155E-01
 cg2d: Sum(rhs),rhsMax =   9.19958553780020E-14  4.28369976772668E-01
 cg2d: Sum(rhs),rhsMax =   2.61152210967452E-13  4.28288469824104E-01
 cg2d: Sum(rhs),rhsMax =   3.57047724719450E-13  4.28205483208454E-01
 cg2d: Sum(rhs),rhsMax =  -1.22457599616155E-13  4.28120864625968E-01
 cg2d: Sum(rhs),rhsMax =   3.69260177990327E-13  4.28034478654788E-01
 cg2d: Sum(rhs),rhsMax =  -7.11930514540882E-15  4.27946222981628E-01
 cg2d: Sum(rhs),rhsMax =   3.05713787618345E-13  4.27856010113955E-01
 cg2d: Sum(rhs),rhsMax =  -4.30960822583870E-13  4.27763796283266E-01
 cg2d: Sum(rhs),rhsMax =   5.01126917740180E-14  4.27669564367896E-01
 cg2d: Sum(rhs),rhsMax =  -6.29080121328229E-14  4.27573328166180E-01
 cg2d: Sum(rhs),rhsMax =   5.16170439723851E-13  4.27475114154128E-01
 cg2d: Sum(rhs),rhsMax =   2.15064077657701E-13  4.27374990932181E-01
 cg2d: Sum(rhs),rhsMax =  -1.37848066295021E-13  4.27273233253740E-01
 cg2d: Sum(rhs),rhsMax =   3.29597460435593E-13  4.27169796660772E-01
 cg2d: Sum(rhs),rhsMax =  -1.50365830897670E-13  4.27064778044046E-01
 cg2d: Sum(rhs),rhsMax =   3.28459481835353E-13  4.26958352769082E-01
 cg2d: Sum(rhs),rhsMax =  -4.68777794360165E-13  4.26850689114332E-01
 cg2d: Sum(rhs),rhsMax =   2.45831133227625E-13  4.26741968520840E-01
 cg2d: Sum(rhs),rhsMax =   4.16069956266085E-13  4.26632347533169E-01
 cg2d: Sum(rhs),rhsMax =   1.21319621015914E-13  4.26521999620905E-01
 cg2d: Sum(rhs),rhsMax =   2.49716913813813E-13  4.26411103923955E-01
 cg2d: Sum(rhs),rhsMax =  -1.09051656593806E-13  4.26299892674256E-01
 cg2d: Sum(rhs),rhsMax =   2.41542896795011E-13  4.26188637887382E-01
 cg2d: Sum(rhs),rhsMax =  -4.67001437520764E-13  4.26077430224848E-01
 cg2d: Sum(rhs),rhsMax =  -6.52575216086859E-13  4.25966390377705E-01
 cg2d: Sum(rhs),rhsMax =   4.90260609886661E-13  4.25855615950042E-01
 cg2d: Sum(rhs),rhsMax =   1.58498214553049E-13  4.25745112022951E-01
 cg2d: Sum(rhs),rhsMax =  -2.64704924646253E-13  4.25634923237355E-01
 cg2d: Sum(rhs),rhsMax =   3.35703687071032E-14  4.25525161773940E-01
 cg2d: Sum(rhs),rhsMax =   5.87585535782864E-14  4.25415523076988E-01
 cg2d: Sum(rhs),rhsMax =   2.46330733588707E-14  4.25308872909917E-01
 cg2d: Sum(rhs),rhsMax =  -7.76878561481453E-14  4.25202443793459E-01
 cg2d: Sum(rhs),rhsMax =  -3.54952178760470E-13  4.25095993453383E-01
 cg2d: Sum(rhs),rhsMax =   1.15282783319515E-13  4.24989454253584E-01
 cg2d: Sum(rhs),rhsMax =  -5.62563884365375E-13  4.24882681165047E-01
 cg2d: Sum(rhs),rhsMax =   9.93441440222398E-13  4.24780345295160E-01
 cg2d: Sum(rhs),rhsMax =   1.51781365254067E-13  4.24675401405430E-01
 cg2d: Sum(rhs),rhsMax =   1.02098884902091E-13  4.24568897712034E-01
 cg2d: Sum(rhs),rhsMax =   3.61627394696029E-13  4.24461119730834E-01
 cg2d: Sum(rhs),rhsMax =   3.35065308831872E-13  4.24351878539455E-01
 cg2d: Sum(rhs),rhsMax =   3.12666559310060E-14  4.24240976290186E-01
 cg2d: Sum(rhs),rhsMax =   2.99524294256059E-13  4.24128238923838E-01
 cg2d: Sum(rhs),rhsMax =  -1.12673759211646E-13  4.24013508120887E-01
 cg2d: Sum(rhs),rhsMax =  -1.18960397088586E-13  4.23896681729432E-01
 cg2d: Sum(rhs),rhsMax =  -3.41129902103887E-13  4.23777673793054E-01
 cg2d: Sum(rhs),rhsMax =   3.11278780529278E-14  4.23656449682342E-01
 cg2d: Sum(rhs),rhsMax =   1.74707470712576E-13  4.23533006701312E-01
 cg2d: Sum(rhs),rhsMax =   8.67847460561677E-13  4.23407376990816E-01
 cg2d: Sum(rhs),rhsMax =   1.41345268822590E-13  4.23279630868564E-01
 cg2d: Sum(rhs),rhsMax =   7.88397125361939E-14  4.23149873305695E-01
 cg2d: Sum(rhs),rhsMax =   2.69548272591180E-13  4.23018245073693E-01
 cg2d: Sum(rhs),rhsMax =   2.84730572452929E-13  4.22884848475408E-01
 cg2d: Sum(rhs),rhsMax =  -4.38676872605015E-13  4.22749940698973E-01
 cg2d: Sum(rhs),rhsMax =   5.11118924961806E-14  4.22613738857879E-01
 cg2d: Sum(rhs),rhsMax =   4.50708914634390E-13  4.22476459266582E-01
 cg2d: Sum(rhs),rhsMax =  -5.17308418324092E-13  4.22338346716503E-01
 cg2d: Sum(rhs),rhsMax =   9.15240105925363E-14  4.22201579431458E-01
 cg2d: Sum(rhs),rhsMax =   1.53613233244698E-13  4.22071957974111E-01
 cg2d: Sum(rhs),rhsMax =  -1.79661840959966E-13  4.21942453927653E-01
 cg2d: Sum(rhs),rhsMax =  -5.05012698326368E-14  4.21813209189685E-01
 cg2d: Sum(rhs),rhsMax =   3.65235619526061E-13  4.21688334399716E-01
 cg2d: Sum(rhs),rhsMax =   2.48967513272191E-13  4.21564037782383E-01
 cg2d: Sum(rhs),rhsMax =   4.80032680272302E-13  4.21440152298864E-01
 cg2d: Sum(rhs),rhsMax =   2.03032035628326E-14  4.21316264198954E-01
 cg2d: Sum(rhs),rhsMax =  -3.37230243729891E-14  4.21192234743941E-01
 cg2d: Sum(rhs),rhsMax =  -2.19338436302507E-13  4.21067969221869E-01
 cg2d: Sum(rhs),rhsMax =   1.28827504219942E-13  4.20943360997954E-01
 cg2d: Sum(rhs),rhsMax =   3.47680217949176E-13  4.20818326415238E-01
 cg2d: Sum(rhs),rhsMax =  -2.69714806044874E-13  4.20692736034028E-01
 cg2d: Sum(rhs),rhsMax =  -2.31203944878189E-13  4.20566456941121E-01
 cg2d: Sum(rhs),rhsMax =  -6.53643805748061E-14  4.20439358707459E-01
 cg2d: Sum(rhs),rhsMax =   4.76382822078847E-13  4.20311280010368E-01
 cg2d: Sum(rhs),rhsMax =  -6.27178864398559E-13  4.20182069248045E-01
 cg2d: Sum(rhs),rhsMax =   2.82524004191487E-13  4.20051568777056E-01
 cg2d: Sum(rhs),rhsMax =  -9.30366894635881E-14  4.19919629377960E-01
 cg2d: Sum(rhs),rhsMax =   1.43760003901150E-13  4.19786179863355E-01
 cg2d: Sum(rhs),rhsMax =  -2.89795965002781E-13  4.19651215858549E-01
 cg2d: Sum(rhs),rhsMax =   4.13155620826444E-13  4.19514323838890E-01
 cg2d: Sum(rhs),rhsMax =   7.77988784506078E-13  4.19375458891991E-01
 cg2d: Sum(rhs),rhsMax =  -2.11969330976558E-13  4.19229428991118E-01
 cg2d: Sum(rhs),rhsMax =  -6.00908212078366E-15  4.19077610889399E-01
 cg2d: Sum(rhs),rhsMax =   3.85413922998623E-13  4.18923025453064E-01
 cg2d: Sum(rhs),rhsMax =  -2.18991491607312E-14  4.18765791372063E-01
 cg2d: Sum(rhs),rhsMax =   3.20576898360514E-13  4.18605912246816E-01
 cg2d: Sum(rhs),rhsMax =   4.75453010295723E-14  4.18443435555400E-01
 cg2d: Sum(rhs),rhsMax =  -6.36532493381026E-13  4.18278427688579E-01
 cg2d: Sum(rhs),rhsMax =   5.93164406481606E-13  4.18110940269024E-01
 cg2d: Sum(rhs),rhsMax =   3.27377014386343E-13  4.17941077465978E-01
 cg2d: Sum(rhs),rhsMax =   6.61137811164281E-14  4.17768959131699E-01
 cg2d: Sum(rhs),rhsMax =   2.19865792239204E-13  4.17594731424536E-01
 cg2d: Sum(rhs),rhsMax =   2.41182074312007E-13  4.17463230723161E-01
 cg2d: Sum(rhs),rhsMax =  -2.14425699418541E-13  4.17521200764029E-01
 cg2d: Sum(rhs),rhsMax =   4.24021928679963E-13  4.17578490658707E-01
 cg2d: Sum(rhs),rhsMax =   3.77683995189670E-13  4.17635130399114E-01
 cg2d: Sum(rhs),rhsMax =  -9.51322354225681E-14  4.17691205497440E-01
 cg2d: Sum(rhs),rhsMax =  -1.32727162593937E-13  4.17746823721895E-01
 cg2d: Sum(rhs),rhsMax =   1.64562807825064E-13  4.17801977497078E-01
 cg2d: Sum(rhs),rhsMax =   1.50157664080552E-13  4.17856826244540E-01
 cg2d: Sum(rhs),rhsMax =  -7.66886554259827E-14  4.17911441153415E-01
 cg2d: Sum(rhs),rhsMax =   8.75077788009548E-13  4.17965858742089E-01
 cg2d: Sum(rhs),rhsMax =  -5.58095236691258E-13  4.18020145394850E-01
 cg2d: Sum(rhs),rhsMax =   6.71837585564106E-13  4.18074412631498E-01
 cg2d: Sum(rhs),rhsMax =   2.39669395440956E-14  4.18128743931830E-01
 cg2d: Sum(rhs),rhsMax =  -3.08919556601950E-14  4.18183217104245E-01
 cg2d: Sum(rhs),rhsMax =  -1.78829173691497E-13  4.18237917472316E-01
 cg2d: Sum(rhs),rhsMax =   5.37583866311309E-13  4.18292899408911E-01
 cg2d: Sum(rhs),rhsMax =  -2.93348678681582E-13  4.18344778017609E-01
 cg2d: Sum(rhs),rhsMax =  -1.14745712931352E-12  4.18361996843630E-01
 cg2d: Sum(rhs),rhsMax =   2.63816746226553E-13  4.18378896893675E-01
 cg2d: Sum(rhs),rhsMax =   7.03104241495112E-13  4.18396977039782E-01
 cg2d: Sum(rhs),rhsMax =  -4.33375557662430E-13  4.18415169448334E-01
 cg2d: Sum(rhs),rhsMax =  -7.64943663966733E-14  4.18434231158758E-01
 cg2d: Sum(rhs),rhsMax =  -1.86906046195645E-13  4.18453543349024E-01
 cg2d: Sum(rhs),rhsMax =  -5.75692271631567E-13  4.18473592637996E-01
 cg2d: Sum(rhs),rhsMax =  -1.74638081773537E-13  4.18493936232362E-01
 cg2d: Sum(rhs),rhsMax =   1.06928355059210E-13  4.18514897212353E-01
 cg2d: Sum(rhs),rhsMax =  -1.69309011255336E-13  4.18536102640963E-01
 cg2d: Sum(rhs),rhsMax =  -2.88519208524463E-13  4.18557754686667E-01
 cg2d: Sum(rhs),rhsMax =   4.41549574681233E-13  4.18579532338117E-01
 cg2d: Sum(rhs),rhsMax =   2.33840724561674E-14  4.18601529167436E-01
 cg2d: Sum(rhs),rhsMax =   1.09634523681734E-14  4.18623486374680E-01
 cg2d: Sum(rhs),rhsMax =   3.96543908820490E-13  4.18644717884353E-01
 cg2d: Sum(rhs),rhsMax =  -2.95596880306448E-15  4.18665731707047E-01
 cg2d: Sum(rhs),rhsMax =  -8.88455975456282E-14  4.18686632254047E-01
 cg2d: Sum(rhs),rhsMax =  -1.91055504750182E-13  4.18707192469423E-01
 cg2d: Sum(rhs),rhsMax =  -5.81340531269348E-13  4.18727467202869E-01
 cg2d: Sum(rhs),rhsMax =  -1.18099974244501E-13  4.18747269799081E-01
 cg2d: Sum(rhs),rhsMax =  -2.04239403167605E-13  4.18766634764437E-01
 cg2d: Sum(rhs),rhsMax =  -3.36369820885807E-13  4.18785407579746E-01
 cg2d: Sum(rhs),rhsMax =  -2.97262214843386E-14  4.18803652950727E-01
 cg2d: Sum(rhs),rhsMax =  -5.56846235788555E-13  4.18821208731261E-01
 cg2d: Sum(rhs),rhsMax =  -3.72618602639818E-14  4.18838163047483E-01
 cg2d: Sum(rhs),rhsMax =  -1.62952984439357E-13  4.18854391846883E-01
 cg2d: Sum(rhs),rhsMax =   2.61859978145651E-13  4.18869563078975E-01
 cg2d: Sum(rhs),rhsMax =   3.73451269908287E-14  4.18884020220554E-01
 cg2d: Sum(rhs),rhsMax =   6.39627240062168E-13  4.18897873591717E-01
 cg2d: Sum(rhs),rhsMax =   2.63150612411778E-13  4.18911034423119E-01
 cg2d: Sum(rhs),rhsMax =   2.42833531061137E-13  4.18923651825726E-01
 cg2d: Sum(rhs),rhsMax =  -1.00613961606655E-14  4.18935663789363E-01
 cg2d: Sum(rhs),rhsMax =   2.69964606225415E-13  4.18947219475570E-01
 cg2d: Sum(rhs),rhsMax =   4.83016404650982E-13  4.18958292042738E-01
 cg2d: Sum(rhs),rhsMax =   5.95773430589475E-14  4.18969016926538E-01
 cg2d: Sum(rhs),rhsMax =  -1.10647602191705E-13  4.18979401999462E-01
 cg2d: Sum(rhs),rhsMax =  -1.44453893291541E-13  4.18989576866132E-01
 cg2d: Sum(rhs),rhsMax =   4.62060945061182E-13  4.18999542945221E-01
 cg2d: Sum(rhs),rhsMax =  -6.13079031985819E-13  4.19009443788781E-01
 cg2d: Sum(rhs),rhsMax =   1.37487243812018E-13  4.19019290204681E-01
 cg2d: Sum(rhs),rhsMax =   1.19654286478976E-13  4.19029209248178E-01
 cg2d: Sum(rhs),rhsMax =   1.59039448277554E-14  4.19039211566233E-01
 cg2d: Sum(rhs),rhsMax =  -4.01928490489922E-13  4.19049409373011E-01
 cg2d: Sum(rhs),rhsMax =  -4.41646719195887E-13  4.19059825134974E-01
 cg2d: Sum(rhs),rhsMax =   1.09315334562154E-13  4.19070416541407E-01
 cg2d: Sum(rhs),rhsMax =  -2.22780127678845E-13  4.19081474476539E-01
 cg2d: Sum(rhs),rhsMax =  -3.07864844728556E-13  4.19092774551153E-01
 cg2d: Sum(rhs),rhsMax =   1.65464864032572E-13  4.19104790813921E-01
 cg2d: Sum(rhs),rhsMax =  -1.40165656858926E-13  4.19117113521444E-01
 cg2d: Sum(rhs),rhsMax =  -7.30387972325275E-14  4.19129847785914E-01
 cg2d: Sum(rhs),rhsMax =   6.75431932606330E-14  4.19142862163000E-01
 cg2d: Sum(rhs),rhsMax =   3.03923552991137E-15  4.19156243617191E-01
 cg2d: Sum(rhs),rhsMax =  -6.09207129187439E-13  4.19169873474787E-01
 cg2d: Sum(rhs),rhsMax =  -9.84906600720592E-14  4.19183798446428E-01
 cg2d: Sum(rhs),rhsMax =   2.03448369262560E-14  4.19197902088157E-01
 cg2d: Sum(rhs),rhsMax =   3.02965985632397E-13  4.19212218811596E-01
 cg2d: Sum(rhs),rhsMax =  -3.65193986162637E-13  4.19226639865915E-01
 cg2d: Sum(rhs),rhsMax =  -1.20584098262100E-13  4.19479982355565E-01
 cg2d: Sum(rhs),rhsMax =   3.13679637820030E-13  4.19931042293429E-01
 cg2d: Sum(rhs),rhsMax =   5.48172618408671E-15  4.20381692721156E-01
 cg2d: Sum(rhs),rhsMax =   2.28678187497167E-13  4.20831660630777E-01
 cg2d: Sum(rhs),rhsMax =   9.32171007050897E-14  4.21280744522952E-01
 cg2d: Sum(rhs),rhsMax =   3.59365315283355E-13  4.21728790099797E-01
 cg2d: Sum(rhs),rhsMax =  -9.90735271599874E-14  4.22175677699050E-01
 cg2d: Sum(rhs),rhsMax =   3.56659146660832E-13  4.22621292421065E-01
 cg2d: Sum(rhs),rhsMax =   1.58414947826202E-13  4.23065552352377E-01
 cg2d: Sum(rhs),rhsMax =   6.95180024656850E-13  4.23507624940233E-01
 cg2d: Sum(rhs),rhsMax =   1.11008424674708E-13  4.23948227539736E-01
 cg2d: Sum(rhs),rhsMax =   3.75546815867267E-13  4.24387361327162E-01
 cg2d: Sum(rhs),rhsMax =  -4.60340099373013E-13  4.24825046884228E-01
 cg2d: Sum(rhs),rhsMax =   1.27856059073395E-13  4.25261325374702E-01
 cg2d: Sum(rhs),rhsMax =  -1.65215063852031E-13  4.25696278857327E-01
 cg2d: Sum(rhs),rhsMax =   4.62546667634456E-14  4.26129979716954E-01
 cg2d: Sum(rhs),rhsMax =   3.68025054875432E-13  4.26562543832077E-01
 cg2d: Sum(rhs),rhsMax =  -3.52551321469718E-13  4.26994095250188E-01
 cg2d: Sum(rhs),rhsMax =   4.04121180963557E-14  4.27424790961713E-01
 cg2d: Sum(rhs),rhsMax =  -1.02279296143593E-14  4.27854853993073E-01
 cg2d: Sum(rhs),rhsMax =   1.35419453428653E-13  4.28284781209902E-01
 cg2d: Sum(rhs),rhsMax =   4.66585103886530E-13  4.28714218757421E-01
 cg2d: Sum(rhs),rhsMax =   4.56301663120939E-14  4.29143021736524E-01
 cg2d: Sum(rhs),rhsMax =  -1.26454402504805E-13  4.29571582550596E-01
 cg2d: Sum(rhs),rhsMax =  -8.05605582243629E-14  4.29999995311957E-01
 cg2d: Sum(rhs),rhsMax =  -3.64985819345520E-14  4.30427701207624E-01
 cg2d: Sum(rhs),rhsMax =  -1.50907064622174E-13  4.30854803993977E-01
 cg2d: Sum(rhs),rhsMax =   9.86571935257530E-14  4.31281427672357E-01
 cg2d: Sum(rhs),rhsMax =   2.49036902211230E-13  4.31707663578087E-01
 cg2d: Sum(rhs),rhsMax =  -1.92512672470002E-13  4.32133584668621E-01
 cg2d: Sum(rhs),rhsMax =   3.05394598498765E-13  4.32559235274652E-01
 cg2d: Sum(rhs),rhsMax =   1.74332770441765E-13  4.32984671774214E-01
 cg2d: Sum(rhs),rhsMax =   3.90354415458205E-13  4.33409905163868E-01
 cg2d: Sum(rhs),rhsMax =  -4.01623179158150E-14  4.33834970920333E-01
 cg2d: Sum(rhs),rhsMax =  -2.59861576701326E-13  4.34260237710726E-01
 cg2d: Sum(rhs),rhsMax =  -2.31370478331883E-13  4.34685479471110E-01
 cg2d: Sum(rhs),rhsMax =  -1.07469588783715E-13  4.35110371199715E-01
 cg2d: Sum(rhs),rhsMax =   1.44939615864814E-13  4.35534861658877E-01
 cg2d: Sum(rhs),rhsMax =  -1.78343451118224E-13  4.35958889713219E-01
 cg2d: Sum(rhs),rhsMax =   2.45109488261619E-13  4.36382330268590E-01
 cg2d: Sum(rhs),rhsMax =  -1.04735664585576E-13  4.36805127083443E-01
 cg2d: Sum(rhs),rhsMax =  -3.17093573620753E-13  4.37227165892639E-01
 cg2d: Sum(rhs),rhsMax =   1.80425119289396E-13  4.37648329118041E-01
 cg2d: Sum(rhs),rhsMax =   2.33563168805517E-14  4.38068491869301E-01
 cg2d: Sum(rhs),rhsMax =   3.16635606623095E-13  4.38487477614630E-01
 cg2d: Sum(rhs),rhsMax =   3.23352455922077E-14  4.38905191151130E-01
 cg2d: Sum(rhs),rhsMax =  -9.78800374085154E-14  4.39321508033763E-01
 cg2d: Sum(rhs),rhsMax =  -1.04208308648879E-13  4.39736263202864E-01
 cg2d: Sum(rhs),rhsMax =  -5.03791452999280E-13  4.40149357646942E-01
 cg2d: Sum(rhs),rhsMax =  -3.69843045078255E-14  4.40560698249004E-01
 cg2d: Sum(rhs),rhsMax =   4.64558946866589E-13  4.40970372413289E-01
 cg2d: Sum(rhs),rhsMax =  -6.80011602582908E-16  4.41378134940577E-01
 cg2d: Sum(rhs),rhsMax =  -6.03073146976385E-13  4.41784023800643E-01
 cg2d: Sum(rhs),rhsMax =   9.52432577250306E-14  4.42188046744830E-01
 cg2d: Sum(rhs),rhsMax =  -2.59958721215980E-13  4.42590342841223E-01
 cg2d: Sum(rhs),rhsMax =   5.36237720893951E-14  4.42991049091437E-01
 cg2d: Sum(rhs),rhsMax =  -1.39471767468535E-13  4.43389592122131E-01
 cg2d: Sum(rhs),rhsMax =  -2.29857799460831E-13  4.43786288858604E-01
 cg2d: Sum(rhs),rhsMax =  -4.57051063662561E-13  4.44181414927599E-01
 cg2d: Sum(rhs),rhsMax =   2.75404699046078E-13  4.44575478758621E-01
 cg2d: Sum(rhs),rhsMax =   2.47996068125644E-14  4.44967814523721E-01
 cg2d: Sum(rhs),rhsMax =  -2.82829315523259E-13  4.45358896782175E-01
 cg2d: Sum(rhs),rhsMax =   5.74706948697212E-13  4.45748968434917E-01
 cg2d: Sum(rhs),rhsMax =  -1.64562807825064E-13  4.46138098600387E-01
 cg2d: Sum(rhs),rhsMax =   3.09391401387415E-13  4.46526355125320E-01
 cg2d: Sum(rhs),rhsMax =  -5.17988429926675E-13  4.46913821385669E-01
 cg2d: Sum(rhs),rhsMax =  -5.12395681440125E-13  4.47300520308440E-01
 cg2d: Sum(rhs),rhsMax =  -4.10407818840497E-13  4.47686400818552E-01
 cg2d: Sum(rhs),rhsMax =  -9.76579928035903E-14  4.48071540626988E-01
 cg2d: Sum(rhs),rhsMax =   3.90104615277664E-13  4.48456010109056E-01
 cg2d: Sum(rhs),rhsMax =  -3.97445965027998E-13  4.48839777923646E-01
 cg2d: Sum(rhs),rhsMax =   5.99242877541428E-14  4.49214939234933E-01
 cg2d: Sum(rhs),rhsMax =   2.48856490969729E-13  4.49588450651912E-01
 cg2d: Sum(rhs),rhsMax =   3.85094733879043E-13  4.49960382184623E-01
 cg2d: Sum(rhs),rhsMax =   2.07056594092592E-13  4.50330740385973E-01
 cg2d: Sum(rhs),rhsMax =   5.40831268658337E-13  4.50699535514630E-01
 cg2d: Sum(rhs),rhsMax =  -5.19181919678147E-13  4.51066724732585E-01
 cg2d: Sum(rhs),rhsMax =   5.68836644454507E-13  4.51432405692518E-01
 cg2d: Sum(rhs),rhsMax =  -4.76021999595844E-13  4.51796234755392E-01
 cg2d: Sum(rhs),rhsMax =   1.18016707517654E-13  4.52158220403804E-01
 cg2d: Sum(rhs),rhsMax =  -1.21028187471950E-13  4.52518429939219E-01
 cg2d: Sum(rhs),rhsMax =  -2.02338146237935E-14  4.52876803093176E-01
 cg2d: Sum(rhs),rhsMax =   1.02348685082632E-13  4.53233270149843E-01
 cg2d: Sum(rhs),rhsMax =   1.78412840057263E-13  4.53586521484350E-01
 cg2d: Sum(rhs),rhsMax =  -1.58109636494430E-13  4.53937718462042E-01
 cg2d: Sum(rhs),rhsMax =  -4.51028103753970E-14  4.54286844331480E-01
 cg2d: Sum(rhs),rhsMax =  -4.32903712876964E-13  4.54633838759074E-01
 cg2d: Sum(rhs),rhsMax =  -5.92026427881365E-14  4.54978650673417E-01
 cg2d: Sum(rhs),rhsMax =  -8.36275493298899E-14  4.55321237472768E-01
 cg2d: Sum(rhs),rhsMax =  -8.26783086438354E-13  4.55661584482303E-01
 cg2d: Sum(rhs),rhsMax =  -1.04763420161191E-13  4.55999668266156E-01
 cg2d: Sum(rhs),rhsMax =   3.79030140607028E-13  4.56335489160399E-01
 cg2d: Sum(rhs),rhsMax =  -8.25867152443038E-14  4.56669050963592E-01
 cg2d: Sum(rhs),rhsMax =  -4.20760648545127E-13  4.57000375329254E-01
 cg2d: Sum(rhs),rhsMax =   2.24403828852360E-14  4.57329514188145E-01
 cg2d: Sum(rhs),rhsMax =  -3.22103455019374E-14  4.57656571834043E-01
 cg2d: Sum(rhs),rhsMax =   2.04003480774873E-15  4.57981728081049E-01
 cg2d: Sum(rhs),rhsMax =   5.18543541438987E-13  4.58304977187854E-01
 cg2d: Sum(rhs),rhsMax =  -8.90398865749376E-14  4.58626347754386E-01
 cg2d: Sum(rhs),rhsMax =  -2.03448369262560E-13  4.58943793574534E-01
 cg2d: Sum(rhs),rhsMax =   1.57887591889505E-13  4.59259540243252E-01
 cg2d: Sum(rhs),rhsMax =  -4.31460422944951E-13  4.59573680485804E-01
 cg2d: Sum(rhs),rhsMax =   6.44082009948477E-13  4.59886276645567E-01
 cg2d: Sum(rhs),rhsMax =  -4.08784117666983E-13  4.60197279683088E-01
 cg2d: Sum(rhs),rhsMax =  -2.87020407441219E-13  4.60507140981768E-01
 cg2d: Sum(rhs),rhsMax =   2.60291788123368E-13  4.60815477246965E-01
 cg2d: Sum(rhs),rhsMax =   2.21184182080947E-13  4.61122459912892E-01
 cg2d: Sum(rhs),rhsMax =   1.60982338570648E-15  4.61428126546023E-01
 cg2d: Sum(rhs),rhsMax =   2.97026292450653E-13  4.61626148579865E-01
 cg2d: Sum(rhs),rhsMax =   3.29083982286704E-13  4.61797740548997E-01
 cg2d: Sum(rhs),rhsMax =  -6.36865560288413E-13  4.61968850329039E-01
 cg2d: Sum(rhs),rhsMax =   5.15282261304151E-13  4.62138982876963E-01
 cg2d: Sum(rhs),rhsMax =  -6.67049748770410E-13  4.62308159017729E-01
 cg2d: Sum(rhs),rhsMax =   1.72417635724287E-13  4.62476374998513E-01
 cg2d: Sum(rhs),rhsMax =  -2.58515431283968E-13  4.62643633986494E-01
 cg2d: Sum(rhs),rhsMax =   2.89823720578397E-13  4.62809905715187E-01
 cg2d: Sum(rhs),rhsMax =   7.61349316924509E-13  4.62974597367479E-01
 cg2d: Sum(rhs),rhsMax =   4.90954499277052E-13  4.63138023609795E-01
 cg2d: Sum(rhs),rhsMax =   4.56190640818477E-13  4.63300098832975E-01
 cg2d: Sum(rhs),rhsMax =  -1.54126711393587E-13  4.63460704498903E-01
 cg2d: Sum(rhs),rhsMax =  -1.71113123670352E-14  4.63619730214831E-01
 cg2d: Sum(rhs),rhsMax =  -1.10661479979512E-13  4.63777018239248E-01
 cg2d: Sum(rhs),rhsMax =  -1.80716552833360E-13  4.63932449620329E-01
 cg2d: Sum(rhs),rhsMax =  -2.05141459375113E-13  4.64085913387077E-01
 cg2d: Sum(rhs),rhsMax =  -1.70322089765307E-13  4.64237278029880E-01
 cg2d: Sum(rhs),rhsMax =   2.59681165459824E-13  4.64386502381954E-01
 cg2d: Sum(rhs),rhsMax =  -2.76598188797550E-13  4.64533391296657E-01
 cg2d: Sum(rhs),rhsMax =  -2.54934962029552E-13  4.64677783874623E-01
 cg2d: Sum(rhs),rhsMax =  -5.09675635029794E-13  4.64819572897796E-01
 cg2d: Sum(rhs),rhsMax =   1.71668235182665E-13  4.64958644497835E-01
 cg2d: Sum(rhs),rhsMax =   3.39756001110914E-13  4.65094887770325E-01
 cg2d: Sum(rhs),rhsMax =  -6.64482358025964E-13  4.65228161302522E-01
 cg2d: Sum(rhs),rhsMax =   2.27678986775004E-13  4.65358394489148E-01
 cg2d: Sum(rhs),rhsMax =  -2.22835638830077E-13  4.65485572392526E-01
 cg2d: Sum(rhs),rhsMax =  -2.47232789796215E-13  4.65609601674541E-01
 cg2d: Sum(rhs),rhsMax =  -3.34982042105025E-13  4.65730962296709E-01
 cg2d: Sum(rhs),rhsMax =   6.64746035994312E-15  4.65849733011800E-01
 cg2d: Sum(rhs),rhsMax =   2.92280089020380E-13  4.65965990251151E-01
 cg2d: Sum(rhs),rhsMax =   2.50799381262823E-13  4.66079828236048E-01
 cg2d: Sum(rhs),rhsMax =   4.73079908580587E-13  4.66191364475750E-01
 cg2d: Sum(rhs),rhsMax =  -2.67327826541930E-13  4.66300764065965E-01
 cg2d: Sum(rhs),rhsMax =  -5.35682609381638E-15  4.66407862838925E-01
 cg2d: Sum(rhs),rhsMax =  -1.07358566481253E-13  4.66512714871934E-01
 cg2d: Sum(rhs),rhsMax =   2.39558373138493E-13  4.66615411826384E-01
 cg2d: Sum(rhs),rhsMax =   4.07535116764279E-13  4.66716409400157E-01
 cg2d: Sum(rhs),rhsMax =   1.69197988952874E-13  4.66815470965141E-01
 cg2d: Sum(rhs),rhsMax =  -8.29752933029226E-14  4.66912021102169E-01
 cg2d: Sum(rhs),rhsMax =  -3.24532067885741E-13  4.67006138782835E-01
 cg2d: Sum(rhs),rhsMax =  -2.25611196391640E-13  4.67097840639018E-01
 cg2d: Sum(rhs),rhsMax =  -2.84813839179776E-13  4.67187133242708E-01
 cg2d: Sum(rhs),rhsMax =   1.28091981466127E-13  4.67273993651631E-01
 cg2d: Sum(rhs),rhsMax =   2.33771335622635E-13  4.67358384007838E-01
 cg2d: Sum(rhs),rhsMax =  -2.63261634714240E-14  4.67440251039447E-01
 cg2d: Sum(rhs),rhsMax =  -1.74527059471075E-13  4.67519500889185E-01
 cg2d: Sum(rhs),rhsMax =  -8.45851166886291E-14  4.67596064856378E-01
 cg2d: Sum(rhs),rhsMax =  -8.38842884043345E-13  4.67669825864497E-01
 cg2d: Sum(rhs),rhsMax =   2.37171393635549E-13  4.67740667832368E-01
 cg2d: Sum(rhs),rhsMax =   3.43100547972597E-13  4.67808447403899E-01
 cg2d: Sum(rhs),rhsMax =  -2.39072650565220E-13  4.67873018283362E-01
 cg2d: Sum(rhs),rhsMax =  -1.25177646026486E-13  4.67933770283968E-01
 cg2d: Sum(rhs),rhsMax =  -5.15282261304151E-14  4.67991822301393E-01
 cg2d: Sum(rhs),rhsMax =  -2.34354202710563E-13  4.68048018787663E-01
 cg2d: Sum(rhs),rhsMax =   4.47683556892287E-13  4.68100836719802E-01
 cg2d: Sum(rhs),rhsMax =   4.79782880091761E-13  4.68149864138109E-01
 cg2d: Sum(rhs),rhsMax =   1.00031094518727E-13  4.68195177579262E-01
 cg2d: Sum(rhs),rhsMax =  -2.52214915619220E-13  4.68236491362418E-01
 cg2d: Sum(rhs),rhsMax =   3.10043657414383E-13  4.68273708962467E-01
 cg2d: Sum(rhs),rhsMax =   1.47618028911722E-13  4.68306762434993E-01
 cg2d: Sum(rhs),rhsMax =  -1.71751501909512E-13  4.68335919922274E-01
 cg2d: Sum(rhs),rhsMax =   1.74291137078342E-13  4.68360809934717E-01
 cg2d: Sum(rhs),rhsMax =  -4.76729766774042E-13  4.68381335629954E-01
 cg2d: Sum(rhs),rhsMax =  -3.52495810318487E-14  4.68397457371289E-01
 cg2d: Sum(rhs),rhsMax =  -3.71314090585884E-13  4.68409225958672E-01
 cg2d: Sum(rhs),rhsMax =  -1.82243109492219E-13  4.68416708510562E-01
 cg2d: Sum(rhs),rhsMax =   3.05588887528074E-14  4.68420002444542E-01
 cg2d: Sum(rhs),rhsMax =   4.63518112781003E-14  4.68419221931632E-01
 cg2d: Sum(rhs),rhsMax =  -4.10615985657614E-13  4.68417568753846E-01
 cg2d: Sum(rhs),rhsMax =  -4.27990975992998E-14  4.68411824795965E-01
 cg2d: Sum(rhs),rhsMax =  -2.43111086817294E-13  4.68401942992376E-01
 cg2d: Sum(rhs),rhsMax =   9.32587340685131E-14  4.68387998221182E-01
 cg2d: Sum(rhs),rhsMax =  -4.07202049856892E-13  4.68370036352409E-01
 cg2d: Sum(rhs),rhsMax =   5.77454750683160E-14  4.68348070042685E-01
 cg2d: Sum(rhs),rhsMax =  -1.56749613289264E-13  4.68322239945574E-01
 cg2d: Sum(rhs),rhsMax =  -9.15656439559598E-14  4.68292615822427E-01
 cg2d: Sum(rhs),rhsMax =   2.03642658291869E-13  4.68259315337432E-01
 cg2d: Sum(rhs),rhsMax =  -7.28583859910259E-14  4.68222501399183E-01
 cg2d: Sum(rhs),rhsMax =   1.57457380467463E-13  4.68182716953107E-01
 cg2d: Sum(rhs),rhsMax =   3.01703106941886E-14  4.68139584901609E-01
 cg2d: Sum(rhs),rhsMax =  -1.37251321419285E-13  4.68093448250257E-01
 cg2d: Sum(rhs),rhsMax =  -9.92678161892968E-14  4.68044491093767E-01
 cg2d: Sum(rhs),rhsMax =   1.41789358032440E-13  4.67992823428323E-01
 cg2d: Sum(rhs),rhsMax =  -3.62765373296270E-13  4.67936026930686E-01
 cg2d: Sum(rhs),rhsMax =   3.23394089285500E-13  4.67877357002697E-01
 cg2d: Sum(rhs),rhsMax =   2.39405717472607E-13  4.67817013913117E-01
 cg2d: Sum(rhs),rhsMax =  -5.80396841698416E-13  4.67755116058196E-01
 cg2d: Sum(rhs),rhsMax =   1.38528077897604E-13  4.67691802214902E-01
 cg2d: Sum(rhs),rhsMax =  -2.99482660892636E-14  4.67627229528158E-01
 cg2d: Sum(rhs),rhsMax =   6.35880237354058E-14  4.67562390245372E-01
 cg2d: Sum(rhs),rhsMax =   4.74481565149176E-14  4.67495768931464E-01
 cg2d: Sum(rhs),rhsMax =  -3.23241433619614E-13  4.67427417832120E-01
 cg2d: Sum(rhs),rhsMax =   2.62984078958084E-13  4.67356983664002E-01
 cg2d: Sum(rhs),rhsMax =   4.11601308591969E-13  4.67284454886633E-01
 cg2d: Sum(rhs),rhsMax =   1.79051218296422E-13  4.67117850666661E-01
 cg2d: Sum(rhs),rhsMax =   4.75591788173801E-13  4.66947760421674E-01
 cg2d: Sum(rhs),rhsMax =   1.07788777903295E-13  4.66776858011280E-01
 cg2d: Sum(rhs),rhsMax =   6.59750032383499E-13  4.66604228979153E-01
 cg2d: Sum(rhs),rhsMax =  -3.93157728595384E-14  4.66430103270524E-01
 cg2d: Sum(rhs),rhsMax =  -2.89629431549088E-14  4.66254481593245E-01
 cg2d: Sum(rhs),rhsMax =  -3.26488835966643E-13  4.66077429554452E-01
 cg2d: Sum(rhs),rhsMax =   7.05852043481059E-13  4.65898983731381E-01
 cg2d: Sum(rhs),rhsMax =  -2.12191375581483E-13  4.65719148468214E-01
 cg2d: Sum(rhs),rhsMax =   2.78915779361455E-13  4.65537927776826E-01
 cg2d: Sum(rhs),rhsMax =  -4.21773727055097E-13  4.65355317317593E-01
 cg2d: Sum(rhs),rhsMax =   2.49009146635615E-13  4.65171274340496E-01
 cg2d: Sum(rhs),rhsMax =   4.96921948034412E-13  4.64985701877509E-01
 cg2d: Sum(rhs),rhsMax =   2.47718512369488E-14  4.64798754997340E-01
 cg2d: Sum(rhs),rhsMax =  -5.52224932448553E-13  4.64610342810467E-01
 cg2d: Sum(rhs),rhsMax =   9.83657599817889E-14  4.64420376234741E-01
 cg2d: Sum(rhs),rhsMax =   3.45098949416922E-13  4.64228764458222E-01
 cg2d: Sum(rhs),rhsMax =   2.73461808752984E-13  4.64035410569985E-01
 cg2d: Sum(rhs),rhsMax =   2.87742052407225E-13  4.63840231818313E-01
 cg2d: Sum(rhs),rhsMax =   2.25361396211099E-13  4.63636484787706E-01
 cg2d: Sum(rhs),rhsMax =   1.42011402637365E-13  4.63430368160049E-01
 cg2d: Sum(rhs),rhsMax =  -4.80518402845576E-13  4.63222097497979E-01
 cg2d: Sum(rhs),rhsMax =   1.24747434604444E-13  4.63011693649121E-01
 cg2d: Sum(rhs),rhsMax =  -6.66355859380019E-13  4.62799303251014E-01
 cg2d: Sum(rhs),rhsMax =   2.03864702896794E-13  4.62585238940552E-01
 cg2d: Sum(rhs),rhsMax =  -5.47478729018280E-14  4.62369358855885E-01
 cg2d: Sum(rhs),rhsMax =  -3.23421844861116E-13  4.62151554458889E-01
 cg2d: Sum(rhs),rhsMax =  -1.03626829339731E-12  4.61931812620135E-01
 cg2d: Sum(rhs),rhsMax =   4.14945855453652E-13  4.61710191935139E-01
 cg2d: Sum(rhs),rhsMax =  -3.23435722648924E-13  4.61486770691997E-01
 cg2d: Sum(rhs),rhsMax =  -6.88019086148017E-13  4.61261645750875E-01
 cg2d: Sum(rhs),rhsMax =   4.55802062759858E-13  4.61034913757373E-01
 cg2d: Sum(rhs),rhsMax =  -3.76768061194355E-13  4.60806686928369E-01
 cg2d: Sum(rhs),rhsMax =   2.36685671062276E-13  4.60576726023964E-01
 cg2d: Sum(rhs),rhsMax =  -4.32376356940267E-13  4.60345399261487E-01
 cg2d: Sum(rhs),rhsMax =  -6.54504228592145E-13  4.60112687130730E-01
 cg2d: Sum(rhs),rhsMax =  -3.42642580974939E-14  4.59878529070624E-01
 cg2d: Sum(rhs),rhsMax =  -3.96974120242533E-13  4.59642930064935E-01
 cg2d: Sum(rhs),rhsMax =  -5.70987701564718E-13  4.59405691907476E-01
 cg2d: Sum(rhs),rhsMax =   1.39388500741688E-13  4.59166902716464E-01
 cg2d: Sum(rhs),rhsMax =   6.26720897400901E-14  4.58926591068619E-01
 cg2d: Sum(rhs),rhsMax =   7.15122405736679E-14  4.58684823686050E-01
 cg2d: Sum(rhs),rhsMax =  -3.23630011678233E-14  4.58441627558203E-01
 cg2d: Sum(rhs),rhsMax =   5.79800096822680E-13  4.58196790079586E-01
 cg2d: Sum(rhs),rhsMax =   1.35919053789735E-13  4.57950650994715E-01
 cg2d: Sum(rhs),rhsMax =  -1.63938307373712E-13  4.57648044841617E-01
 cg2d: Sum(rhs),rhsMax =   1.51059720288060E-13  4.57275042422787E-01
 cg2d: Sum(rhs),rhsMax =  -9.48685574542196E-14  4.56900236845328E-01
 cg2d: Sum(rhs),rhsMax =   8.35442826030430E-15  4.56524946481737E-01
 cg2d: Sum(rhs),rhsMax =  -4.56509829938057E-13  4.56148560579687E-01
 cg2d: Sum(rhs),rhsMax =   3.09544057053301E-13  4.55771254852434E-01
 cg2d: Sum(rhs),rhsMax =   2.36310970791465E-13  4.55393066244501E-01
 cg2d: Sum(rhs),rhsMax =  -2.53130849614536E-14  4.55014080246418E-01
 cg2d: Sum(rhs),rhsMax =  -2.12593831427910E-13  4.54634384478223E-01
 cg2d: Sum(rhs),rhsMax =  -6.27983776091412E-13  4.54254025220522E-01
 cg2d: Sum(rhs),rhsMax =   2.36657915486660E-13  4.53879337826892E-01
 cg2d: Sum(rhs),rhsMax =  -3.91964238843912E-13  4.53504069895560E-01
 cg2d: Sum(rhs),rhsMax =   2.40737985102157E-13  4.53128202323245E-01
 cg2d: Sum(rhs),rhsMax =   2.11497486191092E-13  4.52751961646052E-01
 cg2d: Sum(rhs),rhsMax =  -6.66647292923983E-13  4.52375238974231E-01
 cg2d: Sum(rhs),rhsMax =  -3.65124597223598E-14  4.51998077015042E-01
 cg2d: Sum(rhs),rhsMax =  -9.75192149255122E-14  4.51620409302722E-01
 cg2d: Sum(rhs),rhsMax =  -1.13173359572727E-13  4.51240517689098E-01
 cg2d: Sum(rhs),rhsMax =  -2.24126273096203E-14  4.50860324347445E-01
 cg2d: Sum(rhs),rhsMax =  -1.39041556046493E-13  4.50479665173409E-01
 cg2d: Sum(rhs),rhsMax =  -4.69790872870135E-13  4.50098564656256E-01
 cg2d: Sum(rhs),rhsMax =  -2.52159404467989E-13  4.49716972679712E-01
 cg2d: Sum(rhs),rhsMax =   2.18658424699925E-13  4.49334820983937E-01
 cg2d: Sum(rhs),rhsMax =   6.16118267515731E-13  4.48952028974923E-01
 cg2d: Sum(rhs),rhsMax =   1.39610545346613E-14  4.48568503122239E-01
 cg2d: Sum(rhs),rhsMax =   2.35506059098611E-14  4.48184073039037E-01
 cg2d: Sum(rhs),rhsMax =  -4.08964528908484E-13  4.47798726013306E-01
 cg2d: Sum(rhs),rhsMax =  -6.60263510532388E-13  4.47412340459372E-01
 cg2d: Sum(rhs),rhsMax =  -5.68906033393546E-13  4.47024819324044E-01
 cg2d: Sum(rhs),rhsMax =   6.89920343077688E-13  4.46636063320597E-01
 cg2d: Sum(rhs),rhsMax =   4.78173056706055E-13  4.46245968555408E-01
 cg2d: Sum(rhs),rhsMax =   4.96339080946484E-13  4.45854461473457E-01
 cg2d: Sum(rhs),rhsMax =  -3.53467255465034E-14  4.45461456528826E-01
 cg2d: Sum(rhs),rhsMax =   2.14828155264968E-13  4.45066878161986E-01
 cg2d: Sum(rhs),rhsMax =   4.88983853408342E-13  4.44670679586641E-01
 cg2d: Sum(rhs),rhsMax =  -7.40504879637172E-13  4.44272818791834E-01
 cg2d: Sum(rhs),rhsMax =  -1.98729921407903E-13  4.43873271730860E-01
 cg2d: Sum(rhs),rhsMax =  -2.34548491739872E-13  4.43472037140665E-01
 cg2d: Sum(rhs),rhsMax =   7.38437089253807E-14  4.43069134581652E-01
 cg2d: Sum(rhs),rhsMax =   2.50410803204204E-13  4.42664593391549E-01
 cg2d: Sum(rhs),rhsMax =  -5.38083466672390E-13  4.42258453259065E-01
 cg2d: Sum(rhs),rhsMax =   1.70682912248310E-13  4.41850812110812E-01
 cg2d: Sum(rhs),rhsMax =   5.59552404411079E-14  4.41441733180894E-01
 cg2d: Sum(rhs),rhsMax =   4.51486070751628E-13  4.41031315223854E-01
 cg2d: Sum(rhs),rhsMax =  -6.24500451351651E-15  4.40619650376967E-01
 cg2d: Sum(rhs),rhsMax =   8.15320033709099E-13  4.40206856769441E-01
 cg2d: Sum(rhs),rhsMax =  -1.77982628635220E-13  4.39790637223735E-01
 cg2d: Sum(rhs),rhsMax =   1.03111963412061E-14  4.39373910077889E-01
 cg2d: Sum(rhs),rhsMax =   3.80764864083005E-13  4.38956496292921E-01
 cg2d: Sum(rhs),rhsMax =  -2.87561641165723E-13  4.38538531320492E-01
 cg2d: Sum(rhs),rhsMax =   1.76414438612937E-13  4.38120167965529E-01
 cg2d: Sum(rhs),rhsMax =   6.94860835537270E-14  4.37701542455536E-01
 cg2d: Sum(rhs),rhsMax =  -4.83071915802213E-13  4.37282784430032E-01
 cg2d: Sum(rhs),rhsMax =  -2.33604802168941E-13  4.36864016664326E-01
 cg2d: Sum(rhs),rhsMax =  -3.95197763403132E-13  4.36445059151326E-01
 cg2d: Sum(rhs),rhsMax =  -3.30083183008867E-13  4.36026268278808E-01
 cg2d: Sum(rhs),rhsMax =   1.90888971296488E-13  4.35607706076883E-01
 cg2d: Sum(rhs),rhsMax =   2.63164490199586E-13  4.35189419393354E-01
 cg2d: Sum(rhs),rhsMax =  -2.37046493545279E-13  4.34771446559516E-01
 cg2d: Sum(rhs),rhsMax =   2.07306394273132E-13  4.34353819607036E-01
 cg2d: Sum(rhs),rhsMax =   6.76403377752877E-14  4.33936467901267E-01
 cg2d: Sum(rhs),rhsMax =  -3.09960390687536E-13  4.33519368958641E-01
 cg2d: Sum(rhs),rhsMax =  -1.48464573967999E-13  4.33102490626689E-01
 cg2d: Sum(rhs),rhsMax =   9.05525654459893E-14  4.32685754261139E-01
 cg2d: Sum(rhs),rhsMax =   2.43569053814952E-13  4.32269069151394E-01
 cg2d: Sum(rhs),rhsMax =  -2.50813259050631E-13  4.31852337434044E-01
 cg2d: Sum(rhs),rhsMax =   6.27553564669370E-14  4.31435452106740E-01
 cg2d: Sum(rhs),rhsMax =  -8.09907696464052E-14  4.31018225031173E-01
 cg2d: Sum(rhs),rhsMax =  -2.98150393263086E-13  4.30600619371962E-01
 cg2d: Sum(rhs),rhsMax =   5.78842529463941E-14  4.30182509898977E-01
 cg2d: Sum(rhs),rhsMax =  -1.39638300922229E-13  4.30367586446610E-01
 cg2d: Sum(rhs),rhsMax =  -2.21489493412719E-14  4.30790551041482E-01
 cg2d: Sum(rhs),rhsMax =  -3.98014954328119E-14  4.31214654804896E-01
 cg2d: Sum(rhs),rhsMax =  -7.79931674799172E-14  4.31640320820283E-01
 cg2d: Sum(rhs),rhsMax =   3.47916140341908E-13  4.32067606295750E-01
 cg2d: Sum(rhs),rhsMax =  -4.86333195937050E-13  4.32494123589077E-01
 cg2d: Sum(rhs),rhsMax =  -2.47885045823182E-13  4.32923161312463E-01
 cg2d: Sum(rhs),rhsMax =  -2.24320562125513E-13  4.33355060942898E-01
 cg2d: Sum(rhs),rhsMax =   3.89119292343310E-13  4.33789872585787E-01
 cg2d: Sum(rhs),rhsMax =  -2.81968892679174E-13  4.34227763058084E-01
 cg2d: Sum(rhs),rhsMax =   1.92623694772465E-14  4.34668726996670E-01
 cg2d: Sum(rhs),rhsMax =   2.83176260218454E-13  4.35112671415287E-01
 cg2d: Sum(rhs),rhsMax =  -1.05859765398009E-13  4.35559403232942E-01
 cg2d: Sum(rhs),rhsMax =   2.85466095206743E-13  4.36008654857815E-01
 cg2d: Sum(rhs),rhsMax =   4.92828000631107E-13  4.36460075175690E-01
 cg2d: Sum(rhs),rhsMax =  -2.39183672867682E-13  4.36913255263045E-01
 cg2d: Sum(rhs),rhsMax =   2.56614174354297E-13  4.37367583485488E-01
 cg2d: Sum(rhs),rhsMax =  -2.84577916787043E-13  4.37822757981973E-01
 cg2d: Sum(rhs),rhsMax =   1.24789067967868E-13  4.38278314848415E-01
 cg2d: Sum(rhs),rhsMax =   1.34503519433338E-13  4.38733717593834E-01
 cg2d: Sum(rhs),rhsMax =  -2.37962427540594E-13  4.39188563794742E-01
 cg2d: Sum(rhs),rhsMax =   1.05249142734465E-13  4.39642311163341E-01
 cg2d: Sum(rhs),rhsMax =  -2.27054486323652E-13  4.40080188583870E-01
 cg2d: Sum(rhs),rhsMax =  -1.76109127281165E-13  4.40514597029577E-01
 cg2d: Sum(rhs),rhsMax =   1.14366849324199E-13  4.40946937105964E-01
 cg2d: Sum(rhs),rhsMax =   4.30017133012939E-13  4.41376939972619E-01
 cg2d: Sum(rhs),rhsMax =  -1.39235845075802E-13  4.41804471943607E-01
 cg2d: Sum(rhs),rhsMax =  -1.33656974377061E-13  4.42229469504888E-01
 cg2d: Sum(rhs),rhsMax =   5.55888668429816E-13  4.42651949287005E-01
 cg2d: Sum(rhs),rhsMax =   3.72743502730088E-13  4.43071963410894E-01
 cg2d: Sum(rhs),rhsMax =   6.86242729308617E-13  4.43489642161696E-01
 cg2d: Sum(rhs),rhsMax =  -1.92457161318771E-13  4.43905195029947E-01
 cg2d: Sum(rhs),rhsMax =  -3.20410364906820E-13  4.44318844641560E-01
 cg2d: Sum(rhs),rhsMax =   5.01487740223183E-13  4.44730852678474E-01
 cg2d: Sum(rhs),rhsMax =   2.02532435267244E-13  4.45141538640590E-01
 cg2d: Sum(rhs),rhsMax =   2.88116752678036E-13  4.45551200520474E-01
 cg2d: Sum(rhs),rhsMax =   5.36126698591488E-13  4.45960150661536E-01
 cg2d: Sum(rhs),rhsMax =   8.61394289231043E-14  4.46368814129668E-01
 cg2d: Sum(rhs),rhsMax =  -1.64313007644523E-13  4.46777579719541E-01
 cg2d: Sum(rhs),rhsMax =  -3.32969762872892E-13  4.47186845185560E-01
 cg2d: Sum(rhs),rhsMax =  -2.66064947851419E-13  4.47596909386408E-01
 cg2d: Sum(rhs),rhsMax =  -2.50563458870090E-13  4.48007853706353E-01
 cg2d: Sum(rhs),rhsMax =  -1.35405575640846E-13  4.48420127524439E-01
 cg2d: Sum(rhs),rhsMax =   1.54737334057131E-14  4.48833980565642E-01
 cg2d: Sum(rhs),rhsMax =   5.17780263109557E-14  4.49249604953619E-01
 cg2d: Sum(rhs),rhsMax =  -4.55094295581659E-13  4.49667133760843E-01
 cg2d: Sum(rhs),rhsMax =   2.13357109757339E-13  4.50086642778385E-01
 cg2d: Sum(rhs),rhsMax =  -5.42732525588008E-13  4.50508125046891E-01
 cg2d: Sum(rhs),rhsMax =   7.85316256468604E-13  4.50931495200310E-01
 cg2d: Sum(rhs),rhsMax =  -1.34961486430996E-13  4.51356614960973E-01
 cg2d: Sum(rhs),rhsMax =  -2.40668596163118E-13  4.51783280350037E-01
 cg2d: Sum(rhs),rhsMax =  -1.61315405478035E-13  4.52211230457458E-01
 cg2d: Sum(rhs),rhsMax =   4.22023527235638E-13  4.52640153865921E-01
 cg2d: Sum(rhs),rhsMax =  -6.68909372336657E-15  4.53069690204483E-01
 cg2d: Sum(rhs),rhsMax =   6.06237282596567E-13  4.53499455476905E-01
 cg2d: Sum(rhs),rhsMax =  -1.72931113873176E-13  4.53929028001538E-01
 cg2d: Sum(rhs),rhsMax =  -1.17059140158915E-13  4.54357988137805E-01
 cg2d: Sum(rhs),rhsMax =  -1.25968679931532E-13  4.54785902879109E-01
 cg2d: Sum(rhs),rhsMax =  -5.39776556784943E-13  4.55212373813647E-01
 cg2d: Sum(rhs),rhsMax =  -6.42749742318927E-13  4.55637004599871E-01
 cg2d: Sum(rhs),rhsMax =  -2.25625074179447E-13  4.56059417112318E-01
 cg2d: Sum(rhs),rhsMax =  -2.11691775220402E-13  4.56479280181934E-01
 cg2d: Sum(rhs),rhsMax =  -5.27480836787220E-13  4.56896366770326E-01
 cg2d: Sum(rhs),rhsMax =  -2.64926969251178E-13  4.57310422804707E-01
 cg2d: Sum(rhs),rhsMax =   5.79383763188446E-13  4.57721291463898E-01
 cg2d: Sum(rhs),rhsMax =   4.72760719461007E-13  4.58128855126414E-01
 cg2d: Sum(rhs),rhsMax =   3.80806497446429E-14  4.58537148671506E-01
 cg2d: Sum(rhs),rhsMax =   2.24723017971939E-13  4.58942905253482E-01
 cg2d: Sum(rhs),rhsMax =  -1.03569930409719E-13  4.59345460792353E-01
 cg2d: Sum(rhs),rhsMax =  -1.39291356227034E-13  4.59745074064033E-01
 cg2d: Sum(rhs),rhsMax =  -7.41212646815370E-13  4.60142046855450E-01
 cg2d: Sum(rhs),rhsMax =   5.02528574308769E-13  4.60536720509385E-01
 cg2d: Sum(rhs),rhsMax =   1.59233737306863E-13  4.60929512352518E-01
 cg2d: Sum(rhs),rhsMax =  -6.03350702732541E-13  4.61320850677383E-01
 cg2d: Sum(rhs),rhsMax =  -3.77101128101742E-13  4.61711176365004E-01
 cg2d: Sum(rhs),rhsMax =  -8.06577027390176E-14  4.62100937945328E-01
 cg2d: Sum(rhs),rhsMax =   4.47974990436251E-14  4.62490511115209E-01
 cg2d: Sum(rhs),rhsMax =  -3.49859030635002E-14  4.62875905895502E-01
 cg2d: Sum(rhs),rhsMax =  -3.42503803096861E-13  4.63261879422248E-01
 cg2d: Sum(rhs),rhsMax =   6.67521593555875E-15  4.63648807071426E-01
 cg2d: Sum(rhs),rhsMax =  -1.74735226288192E-13  4.64037024175418E-01
 cg2d: Sum(rhs),rhsMax =  -1.71376801638701E-13  4.64426830485473E-01
 cg2d: Sum(rhs),rhsMax =   3.30707683460219E-14  4.64818449441798E-01
 cg2d: Sum(rhs),rhsMax =   1.12035380972486E-13  4.65212041420620E-01
 cg2d: Sum(rhs),rhsMax =  -2.07778239058598E-13  4.65607693340549E-01
 cg2d: Sum(rhs),rhsMax =   6.82787160144471E-14  4.66005460822871E-01
 cg2d: Sum(rhs),rhsMax =  -3.99888455682174E-13  4.66405224056121E-01
 cg2d: Sum(rhs),rhsMax =  -6.26859675278979E-14  4.66806865582518E-01
 cg2d: Sum(rhs),rhsMax =   1.48103751484996E-13  4.67210289704790E-01
 cg2d: Sum(rhs),rhsMax =   3.10029779626575E-13  4.67615118875368E-01
 cg2d: Sum(rhs),rhsMax =  -9.57151025104963E-14  4.68021016812050E-01
 cg2d: Sum(rhs),rhsMax =  -1.08399400566839E-13  4.68427618408726E-01
 cg2d: Sum(rhs),rhsMax =  -1.14075415780235E-14  4.68834530949579E-01
 cg2d: Sum(rhs),rhsMax =   2.21350715534641E-14  4.69241300400702E-01
 cg2d: Sum(rhs),rhsMax =   2.65412691824451E-13  4.69647568026754E-01
 cg2d: Sum(rhs),rhsMax =  -2.20518048266172E-14  4.70052775493480E-01
 cg2d: Sum(rhs),rhsMax =   2.59348098552437E-13  4.70456524931429E-01
 cg2d: Sum(rhs),rhsMax =   3.46944695195361E-16  4.70858283600948E-01
 cg2d: Sum(rhs),rhsMax =   5.60912427616245E-13  4.71257671948458E-01
 cg2d: Sum(rhs),rhsMax =  -7.06240621539678E-14  4.71654310749101E-01
 cg2d: Sum(rhs),rhsMax =   4.49223991338954E-13  4.72047884817505E-01
 cg2d: Sum(rhs),rhsMax =  -4.85098072822154E-13  4.72438113420842E-01
 cg2d: Sum(rhs),rhsMax =  -1.00669472757886E-13  4.72824780304994E-01
 cg2d: Sum(rhs),rhsMax =  -6.14647222008102E-14  4.73207627188798E-01
 cg2d: Sum(rhs),rhsMax =   4.04287714417251E-13  4.73586720407092E-01
 cg2d: Sum(rhs),rhsMax =   1.06845088332364E-13  4.73920651813206E-01
 cg2d: Sum(rhs),rhsMax =  -9.39387456710961E-14  4.74230834944106E-01
 cg2d: Sum(rhs),rhsMax =  -4.58022508809108E-13  4.74537466633283E-01
 cg2d: Sum(rhs),rhsMax =  -1.80397363713780E-13  4.74841002746864E-01
 cg2d: Sum(rhs),rhsMax =   1.78954073781767E-13  4.75141692393421E-01
 cg2d: Sum(rhs),rhsMax =   2.73170375209020E-13  4.75439976240303E-01
 cg2d: Sum(rhs),rhsMax =   3.42337269643167E-13  4.75736286518220E-01
 cg2d: Sum(rhs),rhsMax =   1.40110145707695E-13  4.76031091016341E-01
 cg2d: Sum(rhs),rhsMax =   1.30978561330153E-13  4.76324842513720E-01
 cg2d: Sum(rhs),rhsMax =   1.35766398123849E-13  4.76617984797910E-01
 cg2d: Sum(rhs),rhsMax =   1.64049329676175E-13  4.76910751508156E-01
 cg2d: Sum(rhs),rhsMax =  -5.72014657862496E-13  4.77203579258078E-01
 cg2d: Sum(rhs),rhsMax =   2.10720330073855E-13  4.77496849361444E-01
 cg2d: Sum(rhs),rhsMax =  -2.26416108084493E-13  4.77790869918347E-01
 cg2d: Sum(rhs),rhsMax =  -1.32685529230514E-13  4.78085902785113E-01
 cg2d: Sum(rhs),rhsMax =   4.03718725117130E-13  4.78382153422529E-01
 cg2d: Sum(rhs),rhsMax =  -1.39763201012499E-13  4.78679739149171E-01
 cg2d: Sum(rhs),rhsMax =   1.20320420293751E-13  4.78978650410153E-01
 cg2d: Sum(rhs),rhsMax =   4.09117184574370E-14  4.79278705294849E-01
 cg2d: Sum(rhs),rhsMax =  -4.22398227506449E-13  4.79579818569171E-01
 cg2d: Sum(rhs),rhsMax =   1.34184330313758E-13  4.79881841890258E-01
 cg2d: Sum(rhs),rhsMax =  -1.01238462058006E-13  4.80184556749513E-01
 cg2d: Sum(rhs),rhsMax =  -4.46601089443277E-13  4.80487696509641E-01
 cg2d: Sum(rhs),rhsMax =   1.16198717314830E-13  4.80790926707443E-01
 cg2d: Sum(rhs),rhsMax =  -3.32359140209348E-13  4.81093874819219E-01
 cg2d: Sum(rhs),rhsMax =   2.79581913176230E-13  4.81396125050389E-01
 cg2d: Sum(rhs),rhsMax =  -3.21478954568022E-13  4.81697286110309E-01
 cg2d: Sum(rhs),rhsMax =   1.01529895601971E-13  4.81996916169151E-01
 cg2d: Sum(rhs),rhsMax =   2.55642729207750E-13  4.82294588264913E-01
 cg2d: Sum(rhs),rhsMax =  -4.99073005144623E-13  4.82589813642047E-01
 cg2d: Sum(rhs),rhsMax =   7.34745597696929E-13  4.82882187260448E-01
 cg2d: Sum(rhs),rhsMax =   1.00489061516384E-13  4.83171293778338E-01
 cg2d: Sum(rhs),rhsMax =   7.38298311375729E-13  4.83456771710196E-01
 cg2d: Sum(rhs),rhsMax =  -5.88210036234216E-13  4.83738302244027E-01
 cg2d: Sum(rhs),rhsMax =   4.14723810848727E-13  4.84015618808960E-01
 cg2d: Sum(rhs),rhsMax =   3.02396996332277E-13  4.84288395282519E-01
 cg2d: Sum(rhs),rhsMax =   2.29538610341251E-13  4.84556413096591E-01
 cg2d: Sum(rhs),rhsMax =   1.85546022990479E-13  4.84819601598605E-01
 cg2d: Sum(rhs),rhsMax =   1.34586786160185E-13  4.85077944260775E-01
 cg2d: Sum(rhs),rhsMax =  -2.82454615252448E-13  4.85331519052223E-01
 cg2d: Sum(rhs),rhsMax =  -5.40192890419178E-13  4.85580628192774E-01
 cg2d: Sum(rhs),rhsMax =   7.48290318597356E-14  4.85825257335302E-01
 cg2d: Sum(rhs),rhsMax =   1.57790447374850E-13  4.86065742514058E-01
 cg2d: Sum(rhs),rhsMax =   2.68757238686135E-13  4.86302399713389E-01
 cg2d: Sum(rhs),rhsMax =  -1.34003919072256E-13  4.86535866862735E-01
 cg2d: Sum(rhs),rhsMax =   4.87956897110564E-13  4.86766239695909E-01
 cg2d: Sum(rhs),rhsMax =   1.10134124042816E-13  4.86993920690789E-01
 cg2d: Sum(rhs),rhsMax =  -4.32431868091498E-13  4.87219316528934E-01
 cg2d: Sum(rhs),rhsMax =   1.92706961499312E-13  4.87442837472143E-01
 cg2d: Sum(rhs),rhsMax =  -2.13357109757339E-13  4.87664875275120E-01
 cg2d: Sum(rhs),rhsMax =  -2.71296873854965E-13  4.87885799888763E-01
 cg2d: Sum(rhs),rhsMax =   2.86812240624101E-13  4.88105940797448E-01
 cg2d: Sum(rhs),rhsMax =   1.19168563905703E-13  4.88325588931048E-01
 cg2d: Sum(rhs),rhsMax =  -2.82038281618213E-13  4.88545002029885E-01
 cg2d: Sum(rhs),rhsMax =  -2.21933582622569E-13  4.88764361696536E-01
 cg2d: Sum(rhs),rhsMax =   4.78436734674403E-13  4.88983765713287E-01
 cg2d: Sum(rhs),rhsMax =   1.47437617670221E-13  4.89203253102372E-01
 cg2d: Sum(rhs),rhsMax =   2.15327755626049E-13  4.89422788528454E-01
 cg2d: Sum(rhs),rhsMax =  -4.26603197212216E-14  4.89642267521664E-01
 cg2d: Sum(rhs),rhsMax =   1.25940924355916E-13  4.89861521796108E-01
 cg2d: Sum(rhs),rhsMax =   1.29118937763906E-13  4.90080308467386E-01
 cg2d: Sum(rhs),rhsMax =  -1.61010094146263E-13  4.90298093693212E-01
 cg2d: Sum(rhs),rhsMax =   4.25964818973057E-13  4.90514880442294E-01
 cg2d: Sum(rhs),rhsMax =   7.84372566897673E-14  4.90730277938364E-01
 cg2d: Sum(rhs),rhsMax =  -1.77580172788794E-13  4.90943901801454E-01
 cg2d: Sum(rhs),rhsMax =  -2.95000135430712E-13  4.91155337597621E-01
 cg2d: Sum(rhs),rhsMax =   2.76736966675628E-13  4.91364163873563E-01
 cg2d: Sum(rhs),rhsMax =  -1.23595578216396E-13  4.91569955820446E-01
 cg2d: Sum(rhs),rhsMax =   2.07694972331751E-13  4.91772319212072E-01
 cg2d: Sum(rhs),rhsMax =  -5.50573475699423E-13  4.91970870067971E-01
 cg2d: Sum(rhs),rhsMax =  -1.08205111537529E-13  4.92165271662662E-01
 cg2d: Sum(rhs),rhsMax =   1.34808830765110E-13  4.92355241620791E-01
 cg2d: Sum(rhs),rhsMax =  -1.59761093243560E-13  4.92540511657562E-01
 cg2d: Sum(rhs),rhsMax =  -6.60860255408124E-14  4.92720851161737E-01
 cg2d: Sum(rhs),rhsMax =   1.55361834508483E-13  4.92896114703012E-01
 cg2d: Sum(rhs),rhsMax =  -5.53196377595100E-13  4.93066289435560E-01
 cg2d: Sum(rhs),rhsMax =   2.77264322612325E-13  4.93231419755684E-01
 cg2d: Sum(rhs),rhsMax =   5.83144643684363E-14  4.93391644563667E-01
 cg2d: Sum(rhs),rhsMax =   3.99541510986978E-14  4.93547165410150E-01
 cg2d: Sum(rhs),rhsMax =  -2.41417996704740E-13  4.93698249265125E-01
 cg2d: Sum(rhs),rhsMax =  -2.47579734491410E-14  4.93845221777701E-01
 cg2d: Sum(rhs),rhsMax =  -1.89570581454745E-14  4.93988453475301E-01
 cg2d: Sum(rhs),rhsMax =   5.74679193121597E-14  4.94128368183237E-01
 cg2d: Sum(rhs),rhsMax =   6.16173778666962E-14  4.94265404133954E-01
 cg2d: Sum(rhs),rhsMax =   1.51351153832024E-13  4.94400128425511E-01
 cg2d: Sum(rhs),rhsMax =   6.00366978353861E-13  4.94532901970546E-01
 cg2d: Sum(rhs),rhsMax =   3.10584891138888E-14  4.94664214797572E-01
 cg2d: Sum(rhs),rhsMax =   2.40862885192428E-13  4.94794479842236E-01
 cg2d: Sum(rhs),rhsMax =  -2.09360306868689E-13  4.94924168855875E-01
 cg2d: Sum(rhs),rhsMax =   7.71382957509559E-13  4.95053665731058E-01
 cg2d: Sum(rhs),rhsMax =   9.59926582666526E-14  4.95183319543582E-01
 cg2d: Sum(rhs),rhsMax =  -7.07156555534993E-13  4.95313408486885E-01
 cg2d: Sum(rhs),rhsMax =   3.11278780529278E-13  4.95443433388555E-01
 cg2d: Sum(rhs),rhsMax =  -2.28733698648398E-13  4.95574114156881E-01
 cg2d: Sum(rhs),rhsMax =  -1.21708199074533E-13  4.95705582616084E-01
 cg2d: Sum(rhs),rhsMax =  -1.23304144672431E-13  4.95837869397162E-01
 cg2d: Sum(rhs),rhsMax =   4.44783099240453E-13  4.95970937549938E-01
 cg2d: Sum(rhs),rhsMax =  -3.58602036953926E-14  4.96104694671509E-01
 cg2d: Sum(rhs),rhsMax =   2.37712627360054E-13  4.96238982590267E-01
 cg2d: Sum(rhs),rhsMax =  -2.01394456667003E-13  4.96373576181439E-01
 cg2d: Sum(rhs),rhsMax =   2.70630740040190E-13  4.96508087967888E-01
 cg2d: Sum(rhs),rhsMax =   3.18078896555107E-14  4.96642050466677E-01
 cg2d: Sum(rhs),rhsMax =  -8.93590756945173E-14  4.96762826837548E-01
 cg2d: Sum(rhs),rhsMax =  -1.64715463490950E-13  4.96882079812560E-01
 cg2d: Sum(rhs),rhsMax =   3.11833892041591E-14  4.96999828010004E-01
 cg2d: Sum(rhs),rhsMax =   3.77670117401863E-13  4.97115560259020E-01
 cg2d: Sum(rhs),rhsMax =   4.53803661315533E-15  4.97228896442626E-01
 cg2d: Sum(rhs),rhsMax =  -8.80420736315557E-13  4.97339465474754E-01
 cg2d: Sum(rhs),rhsMax =  -3.56381590904675E-13  4.97446935538309E-01
 cg2d: Sum(rhs),rhsMax =  -6.98885394001536E-14  4.97551043682176E-01
 cg2d: Sum(rhs),rhsMax =   4.60409488312052E-13  4.97651646990875E-01
 cg2d: Sum(rhs),rhsMax =   9.35765354093121E-13  4.97748564326675E-01
 cg2d: Sum(rhs),rhsMax =  -1.58248414372508E-13  4.97841674540430E-01
 cg2d: Sum(rhs),rhsMax =  -3.10113046353422E-13  4.97930819239719E-01
 cg2d: Sum(rhs),rhsMax =  -8.20177259441834E-15  4.98015155909383E-01
 cg2d: Sum(rhs),rhsMax =   4.26270130304829E-13  4.98097094067064E-01
 cg2d: Sum(rhs),rhsMax =  -2.80719891776471E-13  4.98174877064802E-01
 cg2d: Sum(rhs),rhsMax =  -4.45019021633186E-13  4.98249192561974E-01
 cg2d: Sum(rhs),rhsMax =   6.39321928730396E-13  4.98320222546254E-01
 cg2d: Sum(rhs),rhsMax =   5.44425615700561E-14  4.98352011043105E-01
 cg2d: Sum(rhs),rhsMax =   1.75373604527351E-13  4.98342971690403E-01
 cg2d: Sum(rhs),rhsMax =  -3.47458173344251E-13  4.98331534539253E-01
 cg2d: Sum(rhs),rhsMax =   1.68379199472213E-13  4.98239348334915E-01
 cg2d: Sum(rhs),rhsMax =  -4.47072934228743E-13  4.98114462556110E-01
 cg2d: Sum(rhs),rhsMax =  -7.50260964466065E-13  4.97990050739418E-01
 cg2d: Sum(rhs),rhsMax =  -8.02552468925910E-14  4.97866520713682E-01
 cg2d: Sum(rhs),rhsMax =   6.60443921773890E-14  4.97744242479880E-01
 cg2d: Sum(rhs),rhsMax =  -2.28289609438548E-13  4.97623538298198E-01
 cg2d: Sum(rhs),rhsMax =  -5.12534459318204E-13  4.97504849378991E-01
 cg2d: Sum(rhs),rhsMax =  -1.92901250528621E-15  4.97388539209455E-01
 cg2d: Sum(rhs),rhsMax =  -6.63580301818456E-13  4.97274452481037E-01
 cg2d: Sum(rhs),rhsMax =   3.35648175919800E-13  4.97163081221715E-01
 cg2d: Sum(rhs),rhsMax =   4.34943747684713E-13  4.97054460750693E-01
 cg2d: Sum(rhs),rhsMax =  -6.86256607096425E-14  4.96948608618600E-01
 cg2d: Sum(rhs),rhsMax =   4.29933866286092E-14  4.96845387947740E-01
 cg2d: Sum(rhs),rhsMax =   2.66814348393041E-13  4.96744552670193E-01
 cg2d: Sum(rhs),rhsMax =   2.97706304053236E-13  4.96645789568912E-01
 cg2d: Sum(rhs),rhsMax =   6.30759333652975E-13  4.96548688392070E-01
 cg2d: Sum(rhs),rhsMax =  -3.08239544999367E-13  4.96456108180124E-01
 cg2d: Sum(rhs),rhsMax =   2.18616791336501E-13  4.96364148012209E-01
 cg2d: Sum(rhs),rhsMax =  -1.85240711658707E-13  4.96272273827313E-01
 cg2d: Sum(rhs),rhsMax =   3.43725048423948E-13  4.96179944614950E-01
 cg2d: Sum(rhs),rhsMax =   2.57557863925229E-13  4.96086445867561E-01
 cg2d: Sum(rhs),rhsMax =  -2.34381958286178E-13  4.95991070943024E-01
 cg2d: Sum(rhs),rhsMax =  -1.24456001060480E-13  4.95893241548277E-01
 cg2d: Sum(rhs),rhsMax =   5.37764277552810E-13  4.95792477917418E-01
 cg2d: Sum(rhs),rhsMax =  -3.14082093666457E-13  4.95688309835832E-01
 cg2d: Sum(rhs),rhsMax =   1.05748743095546E-13  4.95580396823879E-01
 cg2d: Sum(rhs),rhsMax =  -5.94066462689113E-13  4.95468419022822E-01
 cg2d: Sum(rhs),rhsMax =  -1.14575016141316E-13  4.95352219883756E-01
 cg2d: Sum(rhs),rhsMax =  -5.56152346398164E-13  4.95231678486137E-01
 cg2d: Sum(rhs),rhsMax =  -2.31620278512423E-14  4.95106791991120E-01
 cg2d: Sum(rhs),rhsMax =   7.08738623345084E-14  4.94977512603918E-01
 cg2d: Sum(rhs),rhsMax =  -1.63799529495634E-13  4.94844265078183E-01
 cg2d: Sum(rhs),rhsMax =   4.26478297121946E-13  4.94707125031774E-01
 cg2d: Sum(rhs),rhsMax =   1.10550457677050E-13  4.94566318868943E-01
 cg2d: Sum(rhs),rhsMax =   3.31873417636075E-13  4.94422243226233E-01
 cg2d: Sum(rhs),rhsMax =   1.66144875635155E-13  4.94275279700808E-01
 cg2d: Sum(rhs),rhsMax =  -2.43388642573450E-13  4.94126058117633E-01
 cg2d: Sum(rhs),rhsMax =   7.89826537506144E-13  4.93975160844711E-01
 cg2d: Sum(rhs),rhsMax =   7.94780907753534E-13  4.93823150018655E-01
 cg2d: Sum(rhs),rhsMax =  -1.35114142096882E-13  4.93670639402192E-01
 cg2d: Sum(rhs),rhsMax =  -1.13339893026421E-13  4.93517824706618E-01
 cg2d: Sum(rhs),rhsMax =   5.35113620081518E-13  4.93365255274833E-01
 cg2d: Sum(rhs),rhsMax =  -2.33701946683595E-14  4.93213420267503E-01
 cg2d: Sum(rhs),rhsMax =  -4.31057967098525E-13  4.93062780013682E-01
 cg2d: Sum(rhs),rhsMax =  -2.29982699551101E-13  4.92913704182959E-01
 cg2d: Sum(rhs),rhsMax =  -3.81514264624627E-13  4.92766499450394E-01
 cg2d: Sum(rhs),rhsMax =  -1.30936927966729E-13  4.92621410474254E-01
 cg2d: Sum(rhs),rhsMax =   1.61370916629267E-13  4.92478583326043E-01
 cg2d: Sum(rhs),rhsMax =   1.02223784992361E-13  4.92338046695223E-01
 cg2d: Sum(rhs),rhsMax =   2.00992000820577E-13  4.92199776413252E-01
 cg2d: Sum(rhs),rhsMax =  -5.08315611824628E-13  4.92063618370023E-01
 cg2d: Sum(rhs),rhsMax =   6.77152778294499E-13  4.91929366331503E-01
 cg2d: Sum(rhs),rhsMax =  -4.86014006817470E-13  4.91796896489982E-01
 cg2d: Sum(rhs),rhsMax =   8.19622147929522E-14  4.91665626304189E-01
 cg2d: Sum(rhs),rhsMax =   4.26186863577982E-13  4.91535200158886E-01
 cg2d: Sum(rhs),rhsMax =  -5.06400477107150E-14  4.91405099669793E-01
 cg2d: Sum(rhs),rhsMax =  -4.78783679369599E-13  4.91274806176092E-01
 cg2d: Sum(rhs),rhsMax =  -1.97827865200395E-13  4.91143845072407E-01
 cg2d: Sum(rhs),rhsMax =  -2.10095829622503E-13  4.91011602463843E-01
 cg2d: Sum(rhs),rhsMax =  -5.64895352717087E-13  4.90877551845123E-01
 cg2d: Sum(rhs),rhsMax =   4.08839628818214E-14  4.90741104853049E-01
 cg2d: Sum(rhs),rhsMax =  -3.10557135563272E-13  4.90601699264823E-01
 cg2d: Sum(rhs),rhsMax =  -2.90698021210289E-13  4.90458680690180E-01
 cg2d: Sum(rhs),rhsMax =   4.89899787403658E-13  4.90311685693714E-01
 cg2d: Sum(rhs),rhsMax =   7.80348008433407E-14  4.90160394146192E-01
 cg2d: Sum(rhs),rhsMax =   4.20177781457198E-13  4.90004601083499E-01
 cg2d: Sum(rhs),rhsMax =   2.85077517148125E-13  4.89844143968009E-01
 cg2d: Sum(rhs),rhsMax =   1.77025061276481E-13  4.89679051388962E-01
 cg2d: Sum(rhs),rhsMax =  -3.80515063902465E-13  4.89509305641436E-01
 cg2d: Sum(rhs),rhsMax =   4.48474590797332E-13  4.89335092005352E-01
 cg2d: Sum(rhs),rhsMax =   5.78134762285742E-13  4.89156652492621E-01
 cg2d: Sum(rhs),rhsMax =   4.46115366870004E-13  4.88974239563835E-01
 cg2d: Sum(rhs),rhsMax =  -1.92443283530963E-13  4.88788254067856E-01
 cg2d: Sum(rhs),rhsMax =   9.11215547461097E-14  4.88599161475171E-01
 cg2d: Sum(rhs),rhsMax =   2.08139061541601E-13  4.88407465041444E-01
 cg2d: Sum(rhs),rhsMax =   8.24451618086641E-13  4.88213581173682E-01
 cg2d: Sum(rhs),rhsMax =   3.35315109012413E-13  4.88017907086993E-01
 cg2d: Sum(rhs),rhsMax =  -1.32449606837781E-13  4.87820866963063E-01
 cg2d: Sum(rhs),rhsMax =  -4.84751128126959E-14  4.87623144693575E-01
 cg2d: Sum(rhs),rhsMax =   1.60524371572990E-13  4.87425302942456E-01
 cg2d: Sum(rhs),rhsMax =  -2.56114573993216E-13  4.87227869409624E-01
 cg2d: Sum(rhs),rhsMax =  -1.79634085384350E-13  4.87031327593656E-01
 cg2d: Sum(rhs),rhsMax =  -1.23984156275014E-13  4.86836114810540E-01
 cg2d: Sum(rhs),rhsMax =  -2.08763561992953E-13  4.86642616334441E-01
 cg2d: Sum(rhs),rhsMax =   2.83981171911307E-13  4.86451127751819E-01
 cg2d: Sum(rhs),rhsMax =  -3.86496390447633E-14  4.86261882950929E-01
 cg2d: Sum(rhs),rhsMax =  -3.00232061434258E-13  4.86075008649105E-01
 cg2d: Sum(rhs),rhsMax =  -2.61554666813879E-13  4.85890574649748E-01
 cg2d: Sum(rhs),rhsMax =  -5.21721554846977E-13  4.85708549410992E-01
 cg2d: Sum(rhs),rhsMax =   3.66290331399455E-13  4.85528828522513E-01
 cg2d: Sum(rhs),rhsMax =  -9.02056207507940E-15  4.85351278587478E-01
 cg2d: Sum(rhs),rhsMax =  -5.42357825317197E-13  4.85175611277917E-01
 cg2d: Sum(rhs),rhsMax =  -2.23154827949656E-14  4.85001528995375E-01
 cg2d: Sum(rhs),rhsMax =  -2.22516449710497E-13  4.84828656787894E-01
 cg2d: Sum(rhs),rhsMax =  -2.07528438878057E-13  4.84656560904607E-01
 cg2d: Sum(rhs),rhsMax =  -1.12632125848222E-13  4.84484807304779E-01
 cg2d: Sum(rhs),rhsMax =   6.36990460378684E-15  4.84312908106415E-01
 cg2d: Sum(rhs),rhsMax =  -2.24681384608516E-14  4.84140383421178E-01
 cg2d: Sum(rhs),rhsMax =   3.23907567434389E-13  4.83966764783071E-01
 cg2d: Sum(rhs),rhsMax =   4.34402513960208E-13  4.83791579439193E-01
 cg2d: Sum(rhs),rhsMax =  -4.26658708363448E-13  4.83614455935405E-01
 cg2d: Sum(rhs),rhsMax =   3.63195584718312E-13  4.83435079338124E-01
 cg2d: Sum(rhs),rhsMax =   1.68462466199060E-13  4.83253075253002E-01
 cg2d: Sum(rhs),rhsMax =  -2.00728322852228E-13  4.83068130767966E-01
 cg2d: Sum(rhs),rhsMax =   4.32293090213420E-14  4.82880069734888E-01
 cg2d: Sum(rhs),rhsMax =   2.61582422389495E-13  4.82688898149624E-01
 cg2d: Sum(rhs),rhsMax =  -5.00904873135255E-13  4.82494686196366E-01
 cg2d: Sum(rhs),rhsMax =   6.89864831926457E-14  4.82297624739192E-01
 cg2d: Sum(rhs),rhsMax =  -2.07889261361061E-14  4.82097690162280E-01
 cg2d: Sum(rhs),rhsMax =   1.37723166204751E-13  4.81895426435255E-01
 cg2d: Sum(rhs),rhsMax =  -1.46979650672563E-13  4.81691153577389E-01
 cg2d: Sum(rhs),rhsMax =   5.35599342654791E-13  4.81485094352911E-01
 cg2d: Sum(rhs),rhsMax =  -1.91943683169882E-13  4.81277697548230E-01
 cg2d: Sum(rhs),rhsMax =  -9.27452559196240E-14  4.81069377883857E-01
 cg2d: Sum(rhs),rhsMax =   3.19647086577390E-13  4.80860655558651E-01
 cg2d: Sum(rhs),rhsMax =  -1.37223565843669E-13  4.80652045021727E-01
 cg2d: Sum(rhs),rhsMax =   3.23033266802497E-13  4.80444050475099E-01
 cg2d: Sum(rhs),rhsMax =  -2.23945861854702E-13  4.80236990718559E-01
 cg2d: Sum(rhs),rhsMax =   1.05457309551582E-13  4.80031563485551E-01
 cg2d: Sum(rhs),rhsMax =   6.62941923579297E-14  4.79828143680590E-01
 cg2d: Sum(rhs),rhsMax =   1.05346287249120E-13  4.79627085906133E-01
 cg2d: Sum(rhs),rhsMax =  -2.28594920770320E-13  4.79428702615770E-01
 cg2d: Sum(rhs),rhsMax =   5.75969827387723E-13  4.79233242784989E-01
 cg2d: Sum(rhs),rhsMax =  -1.32283073384087E-13  4.79040905543365E-01
 cg2d: Sum(rhs),rhsMax =  -4.58647009260460E-13  4.78851759591246E-01
 cg2d: Sum(rhs),rhsMax =   9.52848910884541E-14  4.78665883497048E-01
 cg2d: Sum(rhs),rhsMax =  -1.60038648999716E-13  4.78483099332953E-01
 cg2d: Sum(rhs),rhsMax =   7.51773643337117E-13  4.78303345273426E-01
 cg2d: Sum(rhs),rhsMax =   3.30707683460219E-14  4.78126405339397E-01
 cg2d: Sum(rhs),rhsMax =  -2.48287501669608E-13  4.77951402498565E-01
 cg2d: Sum(rhs),rhsMax =   1.89445681364475E-13  4.77779305506175E-01
 cg2d: Sum(rhs),rhsMax =   2.08055794814754E-13  4.77608816082373E-01
 cg2d: Sum(rhs),rhsMax =   4.70457006684910E-15  4.77439475779377E-01
 cg2d: Sum(rhs),rhsMax =  -5.92553783818062E-13  4.77270993198414E-01
 cg2d: Sum(rhs),rhsMax =  -7.57310880672435E-14  4.77102880103286E-01
 cg2d: Sum(rhs),rhsMax =  -6.82023881815041E-13  4.76934623457981E-01
 cg2d: Sum(rhs),rhsMax =   5.70585245718291E-13  4.76765703730550E-01
 cg2d: Sum(rhs),rhsMax =   5.41386380170650E-13  4.76595435101767E-01
 cg2d: Sum(rhs),rhsMax =  -2.18478013458423E-13  4.76423533505252E-01
 cg2d: Sum(rhs),rhsMax =   1.36543554241086E-13  4.76249634720156E-01
 cg2d: Sum(rhs),rhsMax =   7.13554215714396E-13  4.76073462639557E-01
 cg2d: Sum(rhs),rhsMax =   5.00294250471711E-14  4.75844464955790E-01
 cg2d: Sum(rhs),rhsMax =  -9.97812943381859E-14  4.75611784918302E-01
 cg2d: Sum(rhs),rhsMax =  -2.41445752280356E-13  4.75377117313827E-01
 cg2d: Sum(rhs),rhsMax =   4.08145739427823E-14  4.75140110547696E-01
 cg2d: Sum(rhs),rhsMax =  -1.14741549595010E-13  4.74902528720753E-01
 cg2d: Sum(rhs),rhsMax =   6.05057670632903E-13  4.74660937529158E-01
 cg2d: Sum(rhs),rhsMax =  -3.23907567434389E-14  4.74418597207757E-01
 cg2d: Sum(rhs),rhsMax =   1.71057612519121E-13  4.74175291652238E-01
 cg2d: Sum(rhs),rhsMax =  -2.36879960091585E-13  4.73931334440874E-01
 cg2d: Sum(rhs),rhsMax =   3.06296654706273E-13  4.73687337039414E-01
 cg2d: Sum(rhs),rhsMax =   2.09623984837037E-13  4.73443600204122E-01
 cg2d: Sum(rhs),rhsMax =  -5.42899059041702E-14  4.73200547333034E-01
 cg2d: Sum(rhs),rhsMax =   3.79155040697299E-13  4.72958553522620E-01
 cg2d: Sum(rhs),rhsMax =   4.00651734011603E-14  4.72718096796299E-01
 cg2d: Sum(rhs),rhsMax =  -1.07733266752064E-13  4.72479614785505E-01
 cg2d: Sum(rhs),rhsMax =   7.92144128070049E-14  4.72243545370470E-01
 cg2d: Sum(rhs),rhsMax =  -1.77191594730175E-13  4.72010261816611E-01
 cg2d: Sum(rhs),rhsMax =  -7.91033905045424E-14  4.71780101919351E-01
 cg2d: Sum(rhs),rhsMax =   3.65540930857833E-14  4.71553324577620E-01
 cg2d: Sum(rhs),rhsMax =  -3.36453087612654E-13  4.71330135885911E-01
 cg2d: Sum(rhs),rhsMax =  -1.23470678126125E-13  4.71110651799652E-01
 cg2d: Sum(rhs),rhsMax =   1.44287359837847E-13  4.70894924685833E-01
 cg2d: Sum(rhs),rhsMax =   1.69309011255336E-15  4.70682915634890E-01
 cg2d: Sum(rhs),rhsMax =  -1.12090892123717E-13  4.70474497661393E-01
 cg2d: Sum(rhs),rhsMax =   1.29909971668951E-13  4.70269350971605E-01
 cg2d: Sum(rhs),rhsMax =   3.12153081161171E-13  4.70067305057703E-01
 cg2d: Sum(rhs),rhsMax =  -5.09536857151716E-13  4.69868043578969E-01
 cg2d: Sum(rhs),rhsMax =  -4.12045397801819E-13  4.69671136575039E-01
 cg2d: Sum(rhs),rhsMax =  -3.36369820885807E-13  4.69476121383994E-01
 cg2d: Sum(rhs),rhsMax =   1.35363942277422E-13  4.69282511285454E-01
 cg2d: Sum(rhs),rhsMax =   3.26988436327724E-13  4.69089829453193E-01
 cg2d: Sum(rhs),rhsMax =   2.22571960861728E-13  4.68897353439196E-01
 cg2d: Sum(rhs),rhsMax =  -1.46188616767517E-13  4.68697624966580E-01
 cg2d: Sum(rhs),rhsMax =  -1.87183601951801E-13  4.68497010725807E-01
 cg2d: Sum(rhs),rhsMax =   1.93497995404357E-13  4.68295336366285E-01
 cg2d: Sum(rhs),rhsMax =   2.82052159406021E-13  4.68092283270432E-01
 cg2d: Sum(rhs),rhsMax =  -9.42301792150602E-15  4.67898159925782E-01
 cg2d: Sum(rhs),rhsMax =  -1.74360526017381E-13  4.67701979744174E-01
 cg2d: Sum(rhs),rhsMax =  -2.19824158875781E-13  4.67503280137570E-01
 cg2d: Sum(rhs),rhsMax =   5.21527265817667E-14  4.67302084189733E-01
 cg2d: Sum(rhs),rhsMax =   5.09176034668712E-14  4.67098347299112E-01
 cg2d: Sum(rhs),rhsMax =   3.24101856463699E-13  4.66892156448888E-01
 cg2d: Sum(rhs),rhsMax =  -2.29677388219329E-13  4.66683654560652E-01
 cg2d: Sum(rhs),rhsMax =   2.29677388219329E-13  4.66473077409844E-01
 cg2d: Sum(rhs),rhsMax =   5.45660738815457E-13  4.66260723944125E-01
 cg2d: Sum(rhs),rhsMax =  -8.25173263052648E-14  4.66047053625950E-01
 cg2d: Sum(rhs),rhsMax =   4.36012337345915E-13  4.65831065289946E-01
 cg2d: Sum(rhs),rhsMax =  -6.15438255913148E-13  4.65614589855105E-01
 cg2d: Sum(rhs),rhsMax =  -4.12961331797135E-13  4.65397950653326E-01
 cg2d: Sum(rhs),rhsMax =   3.04201108747293E-13  4.65181735799661E-01
 cg2d: Sum(rhs),rhsMax =   2.83315038096532E-13  4.64966481300334E-01
 cg2d: Sum(rhs),rhsMax =   3.72604724852010E-13  4.65041724301522E-01
 cg2d: Sum(rhs),rhsMax =   2.38475905689484E-13  4.65679036985457E-01
 cg2d: Sum(rhs),rhsMax =  -4.68555749755240E-13  4.66313924826801E-01
 cg2d: Sum(rhs),rhsMax =   2.46080933408166E-13  4.66946480473144E-01
 cg2d: Sum(rhs),rhsMax =  -1.49130707782774E-13  4.67574254955522E-01
 cg2d: Sum(rhs),rhsMax =  -2.63830624014361E-13  4.68199870923078E-01
 cg2d: Sum(rhs),rhsMax =   3.55271367880050E-15  4.68823574732922E-01
 cg2d: Sum(rhs),rhsMax =  -2.18158824338843E-14  4.69445360623164E-01
 cg2d: Sum(rhs),rhsMax =   1.57138191347883E-13  4.70065330528489E-01
 cg2d: Sum(rhs),rhsMax =  -2.45595210834892E-13  4.70683110029405E-01
 cg2d: Sum(rhs),rhsMax =  -1.03625441560951E-13  4.71299184621647E-01
 cg2d: Sum(rhs),rhsMax =  -9.97257831869547E-14  4.71913593686724E-01
 cg2d: Sum(rhs),rhsMax =  -1.49921741687820E-13  4.72526347069597E-01
 cg2d: Sum(rhs),rhsMax =   1.64770974642181E-13  4.73137409312710E-01
 cg2d: Sum(rhs),rhsMax =  -1.32713284806130E-13  4.73746807580099E-01
 cg2d: Sum(rhs),rhsMax =   7.53647144691172E-13  4.74354520276649E-01
 cg2d: Sum(rhs),rhsMax =  -2.27276530928577E-13  4.74960474078763E-01
 cg2d: Sum(rhs),rhsMax =  -2.42625364244020E-13  4.75564609842080E-01
 cg2d: Sum(rhs),rhsMax =   6.16728890179274E-14  4.76166839373399E-01
 cg2d: Sum(rhs),rhsMax =   4.16611189990590E-14  4.76766241243859E-01
 cg2d: Sum(rhs),rhsMax =  -1.72223346694977E-13  4.77364658951339E-01
 cg2d: Sum(rhs),rhsMax =  -1.31492039479042E-13  4.77960622183144E-01
 cg2d: Sum(rhs),rhsMax =  -3.79848930087689E-13  4.78554142641156E-01
 cg2d: Sum(rhs),rhsMax =  -1.64993019247106E-13  4.79145209225449E-01
 cg2d: Sum(rhs),rhsMax =  -2.33188468534706E-13  4.79733698178091E-01
 cg2d: Sum(rhs),rhsMax =   9.43550793053305E-14  4.80319518130260E-01
 cg2d: Sum(rhs),rhsMax =  -4.42978986825437E-14  4.80902411812369E-01
 cg2d: Sum(rhs),rhsMax =  -4.59215998560580E-14  4.81484084504348E-01
 cg2d: Sum(rhs),rhsMax =  -1.29479760246909E-14  4.82068954913107E-01
 cg2d: Sum(rhs),rhsMax =   1.14630527292547E-14  4.82650835362671E-01
 cg2d: Sum(rhs),rhsMax =  -5.97438765126412E-14  4.83229399577959E-01
 cg2d: Sum(rhs),rhsMax =   2.01075267547424E-13  4.83804562624256E-01
 cg2d: Sum(rhs),rhsMax =   4.67584304608692E-13  4.84376184755197E-01
 cg2d: Sum(rhs),rhsMax =  -4.22537005384527E-13  4.84729749019459E-01
 cg2d: Sum(rhs),rhsMax =  -1.71668235182665E-13  4.85026229247271E-01
 cg2d: Sum(rhs),rhsMax =  -1.95829463756070E-13  4.85320653584505E-01
 cg2d: Sum(rhs),rhsMax =   4.93771690202038E-14  4.85612214974992E-01
 cg2d: Sum(rhs),rhsMax =   5.05526176475257E-13  4.85901136153377E-01
 cg2d: Sum(rhs),rhsMax =   1.22832299886966E-13  4.86187559794532E-01
 cg2d: Sum(rhs),rhsMax =  -2.53574938824386E-13  4.86471747203507E-01
 cg2d: Sum(rhs),rhsMax =   3.57450180565877E-13  4.86753846613383E-01
 cg2d: Sum(rhs),rhsMax =  -1.96884175629464E-13  4.87034048780301E-01
 cg2d: Sum(rhs),rhsMax =  -4.16319756446626E-13  4.87312469857791E-01
 cg2d: Sum(rhs),rhsMax =   2.64774313585292E-13  4.87589239306695E-01
 cg2d: Sum(rhs),rhsMax =  -8.37246938445446E-14  4.87746409710745E-01
 cg2d: Sum(rhs),rhsMax =  -1.44675937896466E-13  4.87900521797044E-01
 cg2d: Sum(rhs),rhsMax =  -2.21073159778484E-13  4.88054970509375E-01
 cg2d: Sum(rhs),rhsMax =   4.59396409802082E-13  4.88208588171701E-01
 cg2d: Sum(rhs),rhsMax =  -3.31137894882261E-13  4.88361889734536E-01
 cg2d: Sum(rhs),rhsMax =  -3.95627974825175E-13  4.88514822990407E-01
 cg2d: Sum(rhs),rhsMax =  -1.78010384210836E-13  4.88667527538477E-01
 cg2d: Sum(rhs),rhsMax =  -5.97563665216683E-13  4.88819945154161E-01
 cg2d: Sum(rhs),rhsMax =   3.94267951620009E-13  4.88975882963790E-01
 cg2d: Sum(rhs),rhsMax =   1.24789067967868E-13  4.89131369508032E-01
 cg2d: Sum(rhs),rhsMax =   3.66026653431106E-13  4.89286145762367E-01
 cg2d: Sum(rhs),rhsMax =   3.13638004456607E-14  4.89440068401498E-01
 cg2d: Sum(rhs),rhsMax =   2.39239184018913E-13  4.89596297662295E-01
 cg2d: Sum(rhs),rhsMax =  -3.09863246172881E-13  4.89751166535311E-01
 cg2d: Sum(rhs),rhsMax =  -6.41015018842950E-14  4.89904278708623E-01
 cg2d: Sum(rhs),rhsMax =   1.03209107926716E-13  4.90055534537596E-01
 cg2d: Sum(rhs),rhsMax =   2.10817474588509E-13  4.90204439211051E-01
 cg2d: Sum(rhs),rhsMax =   7.29971638691040E-14  4.90350795933294E-01
 cg2d: Sum(rhs),rhsMax =  -4.19386747552153E-13  4.90494353963719E-01
 cg2d: Sum(rhs),rhsMax =  -4.90205098735430E-13  4.90634979990931E-01
 cg2d: Sum(rhs),rhsMax =  -3.95516952522712E-15  4.90772491488051E-01
 cg2d: Sum(rhs),rhsMax =   2.77430856066019E-13  4.90906762471089E-01
 cg2d: Sum(rhs),rhsMax =  -3.75532938079459E-14  4.91037705351739E-01
 cg2d: Sum(rhs),rhsMax =  -2.13204454091453E-13  4.91165729050560E-01
 cg2d: Sum(rhs),rhsMax =   6.56419363309624E-14  4.91290303718836E-01
 cg2d: Sum(rhs),rhsMax =  -4.14807077575574E-14  4.91411630413168E-01
 cg2d: Sum(rhs),rhsMax =   1.70127800735997E-13  4.91529410848173E-01
 cg2d: Sum(rhs),rhsMax =  -7.57394147399282E-13  4.91644933264431E-01
 cg2d: Sum(rhs),rhsMax =   1.81785142494562E-13  4.91757352314940E-01
 cg2d: Sum(rhs),rhsMax =   4.65877336708331E-14  4.91867228378145E-01
 cg2d: Sum(rhs),rhsMax =  -4.31030211522909E-13  4.91974704135947E-01
 cg2d: Sum(rhs),rhsMax =  -1.64174229766445E-13  4.92079429061216E-01
 cg2d: Sum(rhs),rhsMax =  -8.47655279301307E-14  4.92181343834617E-01
 cg2d: Sum(rhs),rhsMax =   5.24857934891543E-13  4.92280702548831E-01
 cg2d: Sum(rhs),rhsMax =  -2.25652829755063E-14  4.92377704271396E-01
 cg2d: Sum(rhs),rhsMax =   9.28979115855100E-14  4.92472363648046E-01
 cg2d: Sum(rhs),rhsMax =   1.24900090270330E-13  4.92564858735968E-01
 cg2d: Sum(rhs),rhsMax =  -2.48343012820840E-13  4.92655286311390E-01
 cg2d: Sum(rhs),rhsMax =  -3.52495810318487E-14  4.92743744921586E-01
 cg2d: Sum(rhs),rhsMax =  -3.40547035015959E-13  4.92830526514071E-01
 cg2d: Sum(rhs),rhsMax =   2.44873565868886E-13  4.92915711197544E-01
 cg2d: Sum(rhs),rhsMax =   1.92873494953005E-13  4.92999089638102E-01
 cg2d: Sum(rhs),rhsMax =   2.41223707675431E-13  4.93080861021537E-01
 cg2d: Sum(rhs),rhsMax =   7.57588436428591E-14  4.93160980519007E-01
 cg2d: Sum(rhs),rhsMax =  -6.68770594458579E-14  4.93239362068612E-01
 cg2d: Sum(rhs),rhsMax =   2.37587727269783E-13  4.93315963413434E-01
 cg2d: Sum(rhs),rhsMax =  -2.94181345950051E-13  4.93390657570718E-01
 cg2d: Sum(rhs),rhsMax =  -1.29909971668951E-13  4.93463315736271E-01
 cg2d: Sum(rhs),rhsMax =   5.10438913359224E-13  4.93533851333960E-01
 cg2d: Sum(rhs),rhsMax =  -1.22152288284383E-13  4.93607569228151E-01
 cg2d: Sum(rhs),rhsMax =  -3.86204956903669E-13  4.93678883280626E-01
 cg2d: Sum(rhs),rhsMax =  -1.55986334959834E-14  4.93747419916397E-01
 cg2d: Sum(rhs),rhsMax =  -7.51620987671231E-14  4.93813043881437E-01
 cg2d: Sum(rhs),rhsMax =   1.22332699525884E-13  4.93875578843273E-01
 cg2d: Sum(rhs),rhsMax =  -3.09474668114262E-15  4.93934847724482E-01
 cg2d: Sum(rhs),rhsMax =  -3.28320703957274E-13  4.93990707845683E-01
 cg2d: Sum(rhs),rhsMax =   4.67417771154999E-13  4.94043009272980E-01
 cg2d: Sum(rhs),rhsMax =   7.86870568703080E-15  4.94091648230583E-01
 cg2d: Sum(rhs),rhsMax =  -2.12538320276678E-13  4.94136499205249E-01
 cg2d: Sum(rhs),rhsMax =  -4.00929289767760E-14  4.94177557286743E-01
 cg2d: Sum(rhs),rhsMax =   2.93348678681582E-13  4.94214819112928E-01
 cg2d: Sum(rhs),rhsMax =   1.62439506290468E-13  4.94248326074074E-01
 cg2d: Sum(rhs),rhsMax =   3.68455266297474E-13  4.94278141892503E-01
 cg2d: Sum(rhs),rhsMax =  -2.03448369262560E-13  4.94304376229196E-01
 cg2d: Sum(rhs),rhsMax =   1.38597466836643E-13  4.94327146238780E-01
 cg2d: Sum(rhs),rhsMax =   1.09745545984197E-13  4.94346638626479E-01
 cg2d: Sum(rhs),rhsMax =   1.63341562497976E-14  4.94363047000764E-01
 cg2d: Sum(rhs),rhsMax =  -4.91592877516212E-13  4.94376532210005E-01
 cg2d: Sum(rhs),rhsMax =  -1.71307412699662E-13  4.94387356438685E-01
 cg2d: Sum(rhs),rhsMax =   3.42420536370014E-13  4.94397966673402E-01
 cg2d: Sum(rhs),rhsMax =   3.39742123323106E-13  4.94406486659324E-01
 cg2d: Sum(rhs),rhsMax =  -4.81906181626357E-13  4.94413080331702E-01
 cg2d: Sum(rhs),rhsMax =   1.89584459242553E-13  4.94418120356487E-01
 cg2d: Sum(rhs),rhsMax =   2.05238603889768E-13  4.94421818308608E-01
 cg2d: Sum(rhs),rhsMax =   2.51382248350751E-13  4.94424432440296E-01
 cg2d: Sum(rhs),rhsMax =  -2.09415818019920E-14  4.94426226871608E-01
 cg2d: Sum(rhs),rhsMax =   9.63118473862323E-15  4.94427534786295E-01
 cg2d: Sum(rhs),rhsMax =   2.33854602349481E-13  4.94428603504316E-01
 cg2d: Sum(rhs),rhsMax =  -1.57457380467463E-13  4.94429375678475E-01
 cg2d: Sum(rhs),rhsMax =  -1.52072798798031E-13  4.94430039617506E-01
 cg2d: Sum(rhs),rhsMax =  -1.81715753555522E-13  4.94430726837224E-01
 cg2d: Sum(rhs),rhsMax =  -1.31117339208231E-13  4.94431519834520E-01
 cg2d: Sum(rhs),rhsMax =   2.65606980853761E-13  4.94432432470218E-01
 cg2d: Sum(rhs),rhsMax =   5.53432299987833E-13  4.94433470321605E-01
 cg2d: Sum(rhs),rhsMax =   1.34586786160185E-13  4.94434611096039E-01
 cg2d: Sum(rhs),rhsMax =   2.37823649662516E-13  4.94435820976329E-01
 cg2d: Sum(rhs),rhsMax =   1.83394965880268E-13  4.94436986085801E-01
 cg2d: Sum(rhs),rhsMax =  -1.07192033027559E-13  4.94438247816042E-01
 cg2d: Sum(rhs),rhsMax =  -1.15324416682938E-13  4.94438731807434E-01
 cg2d: Sum(rhs),rhsMax =   1.77788339605911E-13  4.94437322251192E-01
 cg2d: Sum(rhs),rhsMax =  -1.07774900115487E-13  4.94433632083703E-01
 cg2d: Sum(rhs),rhsMax =   9.15378883803442E-14  4.94427480554700E-01
 cg2d: Sum(rhs),rhsMax =  -3.99832944530942E-13  4.94418071071431E-01
 cg2d: Sum(rhs),rhsMax =   1.13187237360535E-13  4.94404980592853E-01
 cg2d: Sum(rhs),rhsMax =  -8.74855743404623E-14  4.94387080775063E-01
 cg2d: Sum(rhs),rhsMax =  -2.06987205153553E-13  4.94364233471505E-01
 cg2d: Sum(rhs),rhsMax =   3.05033776015762E-13  4.94335356258789E-01
 cg2d: Sum(rhs),rhsMax =   1.00752739484733E-14  4.94300422080550E-01
 cg2d: Sum(rhs),rhsMax =  -4.16486289900320E-13  4.94259225665580E-01
 cg2d: Sum(rhs),rhsMax =   2.52270426770451E-13  4.94211743450185E-01
 cg2d: Sum(rhs),rhsMax =  -2.08860706507608E-13  4.94157955819734E-01
 cg2d: Sum(rhs),rhsMax =   6.23140428146485E-13  4.94097939984074E-01
 cg2d: Sum(rhs),rhsMax =  -7.37590544197531E-13  4.94031817595956E-01
 cg2d: Sum(rhs),rhsMax =  -2.87811441346264E-13  4.93959739944552E-01
 cg2d: Sum(rhs),rhsMax =   3.15969472808320E-13  4.93881993229006E-01
 cg2d: Sum(rhs),rhsMax =   2.77361467126980E-13  4.93798818327224E-01
 cg2d: Sum(rhs),rhsMax =   3.15983350596127E-13  4.93710688468100E-01
 cg2d: Sum(rhs),rhsMax =  -3.56520368782753E-14  4.93618136446929E-01
 cg2d: Sum(rhs),rhsMax =  -2.56419885324988E-13  4.93521572708317E-01
 cg2d: Sum(rhs),rhsMax =   2.55587218056519E-13  4.93422272271939E-01
 cg2d: Sum(rhs),rhsMax =   2.29677388219329E-13  4.93318232870269E-01
 cg2d: Sum(rhs),rhsMax =   1.79023462720806E-15  4.93212303538603E-01
 cg2d: Sum(rhs),rhsMax =  -3.98153732206197E-14  4.93103752787567E-01
 cg2d: Sum(rhs),rhsMax =   1.83228432426574E-13  4.92993592144498E-01
 cg2d: Sum(rhs),rhsMax =  -1.12146403274949E-13  4.92881848858963E-01
 cg2d: Sum(rhs),rhsMax =   5.63993296509580E-14  4.92768887425677E-01
 cg2d: Sum(rhs),rhsMax =  -1.10286779708701E-13  4.92655021762875E-01
 cg2d: Sum(rhs),rhsMax =   7.09307612645205E-13  4.92540599430801E-01
 cg2d: Sum(rhs),rhsMax =  -2.98233659989933E-14  4.92425854510422E-01
 cg2d: Sum(rhs),rhsMax =   4.08839628818214E-14  4.92311031662910E-01
 cg2d: Sum(rhs),rhsMax =  -1.22082899345344E-13  4.92196358917068E-01
 cg2d: Sum(rhs),rhsMax =   3.45987127836622E-13  4.92082309745507E-01
 cg2d: Sum(rhs),rhsMax =   6.10622663543836E-14  4.91968517006508E-01
 cg2d: Sum(rhs),rhsMax =   2.21947460410377E-13  4.91855233950176E-01
 cg2d: Sum(rhs),rhsMax =  -4.18040602134795E-13  4.91731123076083E-01
 cg2d: Sum(rhs),rhsMax =  -1.17239551400417E-13  4.91594458957345E-01
 cg2d: Sum(rhs),rhsMax =  -3.07462388882129E-13  4.91458644070551E-01
 cg2d: Sum(rhs),rhsMax =  -5.93039506391335E-13  4.91324099599682E-01
 cg2d: Sum(rhs),rhsMax =   1.39888101102770E-14  4.91190800528142E-01
 cg2d: Sum(rhs),rhsMax =  -6.01255156773561E-13  4.91058864114112E-01
 cg2d: Sum(rhs),rhsMax =  -8.26977375467663E-14  4.90928311567112E-01
 cg2d: Sum(rhs),rhsMax =   6.37961905525231E-14  4.90799153283590E-01
 cg2d: Sum(rhs),rhsMax =   5.26245713672324E-14  4.90671349919607E-01
 cg2d: Sum(rhs),rhsMax =  -1.51392787195448E-13  4.90544820089955E-01
 cg2d: Sum(rhs),rhsMax =  -3.34787753075716E-13  4.90419590879243E-01
 cg2d: Sum(rhs),rhsMax =  -1.38278277717063E-13  4.90296325453217E-01
 cg2d: Sum(rhs),rhsMax =  -1.01113561967736E-13  4.90174137102966E-01
 cg2d: Sum(rhs),rhsMax =  -2.54060661397659E-13  4.90052942178188E-01
 cg2d: Sum(rhs),rhsMax =  -4.43395320459672E-14  4.89932549057601E-01
 cg2d: Sum(rhs),rhsMax =   4.77451411740049E-13  4.89812858941816E-01
 cg2d: Sum(rhs),rhsMax =   5.76344527658534E-13  4.89693710542496E-01
 cg2d: Sum(rhs),rhsMax =   5.02375918642883E-14  4.89574969423988E-01
 cg2d: Sum(rhs),rhsMax =  -1.22138410496575E-13  4.89456510255167E-01
 cg2d: Sum(rhs),rhsMax =   2.75529599136348E-13  4.89338212258731E-01
 cg2d: Sum(rhs),rhsMax =  -3.79696274421804E-13  4.89219902619659E-01
 cg2d: Sum(rhs),rhsMax =   9.09730624165661E-13  4.89101560213286E-01
 cg2d: Sum(rhs),rhsMax =   2.37102004696510E-13  4.88983261755672E-01
 cg2d: Sum(rhs),rhsMax =   1.30034871759221E-14  4.88864904305527E-01
 cg2d: Sum(rhs),rhsMax =  -1.77302617032637E-13  4.88746463567020E-01
 cg2d: Sum(rhs),rhsMax =  -3.18495230189342E-14  4.88628014455022E-01
 cg2d: Sum(rhs),rhsMax =  -2.88519208524463E-14  4.88509595739379E-01
 cg2d: Sum(rhs),rhsMax =   5.82381365354934E-13  4.88391264587679E-01
 cg2d: Sum(rhs),rhsMax =  -1.46591072613944E-13  4.88273098431785E-01
 cg2d: Sum(rhs),rhsMax =  -2.88033485951189E-13  4.88155201775934E-01
 cg2d: Sum(rhs),rhsMax =  -4.29503654864050E-13  4.88037706503895E-01
 cg2d: Sum(rhs),rhsMax =  -6.40168473786673E-13  4.87920760066468E-01
 cg2d: Sum(rhs),rhsMax =  -3.10626524502311E-13  4.87804509928598E-01
 cg2d: Sum(rhs),rhsMax =   1.75387482315159E-13  4.87689138485671E-01
 cg2d: Sum(rhs),rhsMax =   1.97702965110125E-13  4.87574805626065E-01
 cg2d: Sum(rhs),rhsMax =  -2.06154537885084E-13  4.87461701228624E-01
 cg2d: Sum(rhs),rhsMax =   3.36120020705266E-14  4.87349984434518E-01
 cg2d: Sum(rhs),rhsMax =  -3.76546016589430E-13  4.87239760657309E-01
 cg2d: Sum(rhs),rhsMax =   2.37879160813748E-13  4.87131226274844E-01
 cg2d: Sum(rhs),rhsMax =  -3.53231333072301E-13  4.87024456176990E-01
 cg2d: Sum(rhs),rhsMax =  -2.41015540858314E-13  4.86919531569267E-01
 cg2d: Sum(rhs),rhsMax =   1.26190724536457E-13  4.86816518411055E-01
 cg2d: Sum(rhs),rhsMax =   3.11417558407356E-13  4.86715465626232E-01
 cg2d: Sum(rhs),rhsMax =  -2.41473507855972E-13  4.86616447479696E-01
 cg2d: Sum(rhs),rhsMax =   9.78384040450919E-14  4.86519644248408E-01
 cg2d: Sum(rhs),rhsMax =  -2.21447860049295E-13  4.86424787141036E-01
 cg2d: Sum(rhs),rhsMax =   9.14684994413051E-14  4.86331897213968E-01
 cg2d: Sum(rhs),rhsMax =   6.40182351574481E-14  4.86212201407237E-01
 cg2d: Sum(rhs),rhsMax =   3.90312782094782E-13  4.86093915309888E-01
 cg2d: Sum(rhs),rhsMax =   2.66120459002650E-13  4.85977561058893E-01
 cg2d: Sum(rhs),rhsMax =   7.64804886088655E-14  4.85863802376899E-01
 cg2d: Sum(rhs),rhsMax =  -3.01786373668733E-13  4.85752048546114E-01
 cg2d: Sum(rhs),rhsMax =   8.22036883008082E-13  4.85642372441303E-01
 cg2d: Sum(rhs),rhsMax =   2.11303197161783E-13  4.85534842106981E-01
 cg2d: Sum(rhs),rhsMax =   3.60919627517831E-13  4.85429469433171E-01
 cg2d: Sum(rhs),rhsMax =  -2.19130269485390E-13  4.85326148712249E-01
 cg2d: Sum(rhs),rhsMax =   1.66075486696116E-13  4.85224780010127E-01
 cg2d: Sum(rhs),rhsMax =   1.92415527955347E-13  4.85125357147058E-01
 cg2d: Sum(rhs),rhsMax =   9.33558785831679E-14  4.85027768617992E-01
 cg2d: Sum(rhs),rhsMax =  -7.41073868937292E-14  4.84931874391530E-01
 cg2d: Sum(rhs),rhsMax =  -1.18516307878735E-13  4.84837567709208E-01
 cg2d: Sum(rhs),rhsMax =  -2.29677388219329E-13  4.84744732186003E-01
 cg2d: Sum(rhs),rhsMax =   6.60860255408124E-14  4.84653202773845E-01
 cg2d: Sum(rhs),rhsMax =   1.26371135777958E-13  4.84562889286843E-01
 cg2d: Sum(rhs),rhsMax =   6.91002810526697E-13  4.84473630052982E-01
 cg2d: Sum(rhs),rhsMax =   1.54029566878933E-13  4.84385317621231E-01
 cg2d: Sum(rhs),rhsMax =  -5.08898478912556E-14  4.84297809395237E-01
 cg2d: Sum(rhs),rhsMax =   3.36203287432113E-13  4.84210990249659E-01
 cg2d: Sum(rhs),rhsMax =   3.73645558937596E-13  4.84124853294803E-01
 cg2d: Sum(rhs),rhsMax =   1.09001696557698E-12  4.84039249518703E-01
 cg2d: Sum(rhs),rhsMax =   2.81719092498633E-15  4.83954054159730E-01
 cg2d: Sum(rhs),rhsMax =  -1.19709797630208E-13  4.83869390225032E-01
 cg2d: Sum(rhs),rhsMax =  -1.61842761414732E-13  4.83785099422471E-01
 cg2d: Sum(rhs),rhsMax =  -1.97064586870965E-13  4.83701123464030E-01
 cg2d: Sum(rhs),rhsMax =   3.74700270810990E-16  4.83617432920761E-01
 cg2d: Sum(rhs),rhsMax =   3.10584891138888E-14  4.83533907421217E-01
 cg2d: Sum(rhs),rhsMax =  -6.99440505513849E-14  4.83450583960773E-01
 cg2d: Sum(rhs),rhsMax =  -2.65787392095262E-13  4.83365389867949E-01
 cg2d: Sum(rhs),rhsMax =  -1.46063716677247E-13  4.83263914546986E-01
 cg2d: Sum(rhs),rhsMax =   2.49841813904084E-13  4.83162802778069E-01
 cg2d: Sum(rhs),rhsMax =   8.52484749458426E-13  4.83062735976232E-01
 cg2d: Sum(rhs),rhsMax =  -2.33230101898130E-13  4.82963703600810E-01
 cg2d: Sum(rhs),rhsMax =  -8.74300631892311E-14  4.82865987419145E-01
 cg2d: Sum(rhs),rhsMax =   1.00364161426114E-13  4.82769757399070E-01
 cg2d: Sum(rhs),rhsMax =   5.91068860522626E-13  4.82675178123441E-01
 cg2d: Sum(rhs),rhsMax =  -2.94347879403745E-14  4.82582368638976E-01
 cg2d: Sum(rhs),rhsMax =   2.23515650432660E-13  4.82491486941456E-01
 cg2d: Sum(rhs),rhsMax =   4.30766533554561E-14  4.82403359482586E-01
 cg2d: Sum(rhs),rhsMax =  -2.74349987172684E-13  4.82317861539401E-01
 cg2d: Sum(rhs),rhsMax =  -3.85358411847392E-13  4.82234049439028E-01
 cg2d: Sum(rhs),rhsMax =  -3.34440808380521E-13  4.82151823864682E-01
 cg2d: Sum(rhs),rhsMax =  -5.69544411632705E-14  4.82071109770300E-01
 cg2d: Sum(rhs),rhsMax =   3.59198781829662E-13  4.81991778077706E-01
 cg2d: Sum(rhs),rhsMax =   3.57908147563535E-14  4.81913710003083E-01
 cg2d: Sum(rhs),rhsMax =   2.58515431283968E-13  4.81836789309410E-01
 cg2d: Sum(rhs),rhsMax =   2.14162021450193E-13  4.81760863847650E-01
 cg2d: Sum(rhs),rhsMax =   3.42295636279744E-13  4.81685735284621E-01
 cg2d: Sum(rhs),rhsMax =   3.29111737862320E-13  4.81611276399279E-01
 cg2d: Sum(rhs),rhsMax =  -3.44418937814339E-13  4.81537356093179E-01
 cg2d: Sum(rhs),rhsMax =  -2.00978123032769E-13  4.81463809770384E-01
 cg2d: Sum(rhs),rhsMax =  -4.53040382986103E-13  4.81390355305609E-01
 cg2d: Sum(rhs),rhsMax =  -3.98514554689200E-13  4.81316838163081E-01
 cg2d: Sum(rhs),rhsMax =  -1.39471767468535E-14  4.81243124367561E-01
 cg2d: Sum(rhs),rhsMax =  -3.14095971454265E-13  4.81169068787587E-01
 cg2d: Sum(rhs),rhsMax =  -6.17075834874470E-13  4.81094538796864E-01
 cg2d: Sum(rhs),rhsMax =   3.49720252756924E-13  4.81019439827851E-01
 cg2d: Sum(rhs),rhsMax =  -3.03923552991137E-14  4.80943673959006E-01
 cg2d: Sum(rhs),rhsMax =   7.53508366813094E-13  4.80867169794934E-01
 cg2d: Sum(rhs),rhsMax =  -2.00395255944841E-14  4.80789888465720E-01
 cg2d: Sum(rhs),rhsMax =  -3.65124597223598E-13  4.80711784397301E-01
 cg2d: Sum(rhs),rhsMax =   5.71764857681956E-14  4.80632852138031E-01
 cg2d: Sum(rhs),rhsMax =   1.97147853597812E-13  4.80553058794257E-01
 cg2d: Sum(rhs),rhsMax =  -1.16573417585641E-13  4.80472413497270E-01
 cg2d: Sum(rhs),rhsMax =  -7.11097847272413E-14  4.80390930706068E-01
 cg2d: Sum(rhs),rhsMax =  -2.88616353039117E-13  4.80308648358446E-01
 cg2d: Sum(rhs),rhsMax =  -5.10147479815259E-14  4.80225661163432E-01
 cg2d: Sum(rhs),rhsMax =  -7.84927678409986E-14  4.80141977354727E-01
 cg2d: Sum(rhs),rhsMax =  -1.17864051851768E-13  4.80057639320157E-01
 cg2d: Sum(rhs),rhsMax =  -4.44921877118531E-14  4.79972690087095E-01
 cg2d: Sum(rhs),rhsMax =  -2.62720400989735E-13  4.79887175768232E-01
 cg2d: Sum(rhs),rhsMax =  -1.43884903991420E-13  4.79801179374057E-01
 cg2d: Sum(rhs),rhsMax =  -3.22034066080334E-13  4.79714744424963E-01
 cg2d: Sum(rhs),rhsMax =  -2.82787682159835E-13  4.79627966417462E-01
 cg2d: Sum(rhs),rhsMax =  -1.31464283903426E-13  4.79540948641769E-01
 cg2d: Sum(rhs),rhsMax =  -4.75966488444612E-13  4.79454132017975E-01
 cg2d: Sum(rhs),rhsMax =   4.12669898253171E-13  4.79366419151127E-01
 cg2d: Sum(rhs),rhsMax =  -9.91151605234109E-14  4.79278942918723E-01
 cg2d: Sum(rhs),rhsMax =  -8.38218383591993E-14  4.79191407297004E-01
 cg2d: Sum(rhs),rhsMax =  -5.21013787668778E-13  4.79103853369739E-01
 cg2d: Sum(rhs),rhsMax =  -3.00676150644108E-13  4.79016306590133E-01
 cg2d: Sum(rhs),rhsMax =   9.64783808399261E-14  4.78928764197695E-01
 cg2d: Sum(rhs),rhsMax =  -2.77333711551364E-13  4.78841225133925E-01
 cg2d: Sum(rhs),rhsMax =  -3.81611409139282E-13  4.78753745043968E-01
 cg2d: Sum(rhs),rhsMax =   3.37910255332474E-13  4.78666308010182E-01
 cg2d: Sum(rhs),rhsMax =  -4.20774526332934E-14  4.78578891506550E-01
 cg2d: Sum(rhs),rhsMax =  -1.96564986509884E-13  4.78491474090179E-01
 cg2d: Sum(rhs),rhsMax =   4.63837301900583E-13  4.78404041373017E-01
 cg2d: Sum(rhs),rhsMax =   4.24105195406810E-13  4.78316556613983E-01
 cg2d: Sum(rhs),rhsMax =   2.20615192780826E-13  4.78228983358685E-01
 cg2d: Sum(rhs),rhsMax =  -2.38212227721135E-13  4.78141291336110E-01
 cg2d: Sum(rhs),rhsMax =  -1.13922760114349E-12  4.78053476966879E-01
 cg2d: Sum(rhs),rhsMax =  -6.22502049907325E-13  4.77965490235879E-01
 cg2d: Sum(rhs),rhsMax =   3.30499516643101E-13  4.77877249062950E-01
 cg2d: Sum(rhs),rhsMax =  -1.21569421196455E-13  4.77788639928985E-01
 cg2d: Sum(rhs),rhsMax =  -5.32490718185841E-14  4.77699634029598E-01
 cg2d: Sum(rhs),rhsMax =  -7.51204654036997E-14  4.77609390387357E-01
 cg2d: Sum(rhs),rhsMax =   2.22516449710497E-13  4.77518688855183E-01
 cg2d: Sum(rhs),rhsMax =   5.52335954751015E-14  4.77427625115306E-01
 cg2d: Sum(rhs),rhsMax =   3.94184684893162E-13  4.77336187404080E-01
 cg2d: Sum(rhs),rhsMax =   2.72573630333284E-13  4.77244338483344E-01
 cg2d: Sum(rhs),rhsMax =  -2.21545004563950E-13  4.77152093918135E-01
 cg2d: Sum(rhs),rhsMax =   2.91600077417797E-13  4.77059396628493E-01
 cg2d: Sum(rhs),rhsMax =  -2.76501044282895E-13  4.76966286155927E-01
 cg2d: Sum(rhs),rhsMax =  -3.72812891669128E-13  4.76872729783055E-01
 cg2d: Sum(rhs),rhsMax =  -4.71900296616923E-13  4.76778728550024E-01
 cg2d: Sum(rhs),rhsMax =  -3.13610248880991E-13  4.76684214999164E-01
 cg2d: Sum(rhs),rhsMax =   1.78135284301106E-13  4.76589260508970E-01
 cg2d: Sum(rhs),rhsMax =   1.48464573967999E-13  4.76493867629328E-01
 cg2d: Sum(rhs),rhsMax =  -2.16965334587371E-13  4.76398044224613E-01
 cg2d: Sum(rhs),rhsMax =  -9.50350909079134E-14  4.76301789276314E-01
 cg2d: Sum(rhs),rhsMax =   1.88654647459430E-13  4.76205116601915E-01
 cg2d: Sum(rhs),rhsMax =   1.52183821100493E-13  4.76108019736263E-01
 cg2d: Sum(rhs),rhsMax =   1.03278496865755E-13  4.76010509014429E-01
(PID.TID 0000.0001) // =======================================================
(PID.TID 0000.0001) // Begin MONITOR dynamic field statistics
(PID.TID 0000.0001) // =======================================================
(PID.TID 0000.0001) %MON time_tsnumber                =                 21600
(PID.TID 0000.0001) %MON time_secondsf                =   2.5920000000000E+07
(PID.TID 0000.0001) %MON dynstat_eta_max              =   2.3521541078828E-01
(PID.TID 0000.0001) %MON dynstat_eta_min              =  -2.8566318405063E-01
(PID.TID 0000.0001) %MON dynstat_eta_mean             =  -1.5336666696169E-17
(PID.TID 0000.0001) %MON dynstat_eta_sd               =   1.4154689734463E-01
(PID.TID 0000.0001) %MON dynstat_eta_del2             =   3.2582188136019E-04
(PID.TID 0000.0001) %MON dynstat_uvel_max             =   2.5227312568611E-01
(PID.TID 0000.0001) %MON dynstat_uvel_min             =  -4.2407967244409E-01
(PID.TID 0000.0001) %MON dynstat_uvel_mean            =   8.1036146153800E-05
(PID.TID 0000.0001) %MON dynstat_uvel_sd              =   1.0986198888974E-02
(PID.TID 0000.0001) %MON dynstat_uvel_del2            =   3.0530561904882E-04
(PID.TID 0000.0001) %MON dynstat_vvel_max             =   3.8114756058917E-01
(PID.TID 0000.0001) %MON dynstat_vvel_min             =  -2.1892343230856E-01
(PID.TID 0000.0001) %MON dynstat_vvel_mean            =  -1.0761071158386E-06
(PID.TID 0000.0001) %MON dynstat_vvel_sd              =   1.1822360515003E-02
(PID.TID 0000.0001) %MON dynstat_vvel_del2            =   2.0150542888832E-04
(PID.TID 0000.0001) %MON dynstat_wvel_max             =   2.2054655012566E-04
(PID.TID 0000.0001) %MON dynstat_wvel_min             =  -2.6922986524902E-04
(PID.TID 0000.0001) %MON dynstat_wvel_mean            =   8.3951488079488E-23
(PID.TID 0000.0001) %MON dynstat_wvel_sd              =   1.0875860115035E-05
(PID.TID 0000.0001) %MON dynstat_wvel_del2            =   3.5036925022460E-07
(PID.TID 0000.0001) %MON dynstat_theta_max            =   2.6960991444666E+01
(PID.TID 0000.0001) %MON dynstat_theta_min            =   9.9186113739676E-01
(PID.TID 0000.0001) %MON dynstat_theta_mean           =   3.9876963648344E+00
(PID.TID 0000.0001) %MON dynstat_theta_sd             =   4.3847239940493E+00
(PID.TID 0000.0001) %MON dynstat_theta_del2           =   1.9866313519760E-03
(PID.TID 0000.0001) %MON dynstat_salt_max             =   3.4500000000009E+01
(PID.TID 0000.0001) %MON dynstat_salt_min             =   3.4499999999974E+01
(PID.TID 0000.0001) %MON dynstat_salt_mean            =   3.4499999999997E+01
(PID.TID 0000.0001) %MON dynstat_salt_sd              =   3.4497397991200E-12
(PID.TID 0000.0001) %MON dynstat_salt_del2            =   1.8408628235746E-14
(PID.TID 0000.0001) %MON trAdv_CFL_u_max              =   8.5815255762517E-03
(PID.TID 0000.0001) %MON trAdv_CFL_v_max              =   4.1038759398304E-03
(PID.TID 0000.0001) %MON trAdv_CFL_w_max              =   1.8751965609373E-02
(PID.TID 0000.0001) %MON advcfl_uvel_max              =   8.5814166565756E-03
(PID.TID 0000.0001) %MON advcfl_vvel_max              =   4.1139365639183E-03
(PID.TID 0000.0001) %MON advcfl_wvel_max              =   1.7586649616545E-02
(PID.TID 0000.0001) %MON advcfl_W_hf_max              =   1.8751965609373E-02
(PID.TID 0000.0001) %MON pe_b_mean                    =   3.1658212952694E-05
(PID.TID 0000.0001) %MON ke_max                       =   1.0212614856381E-01
(PID.TID 0000.0001) %MON ke_mean                      =   1.2742613315760E-04
(PID.TID 0000.0001) %MON ke_vol                       =   7.5744557036543E+16
(PID.TID 0000.0001) %MON vort_r_min                   =  -9.6557409165909E-06
(PID.TID 0000.0001) %MON vort_r_max                   =   6.6022664224129E-06
(PID.TID 0000.0001) %MON vort_a_mean                  =   9.3555569952478E-05
(PID.TID 0000.0001) %MON vort_a_sd                    =   2.5195166364259E-05
(PID.TID 0000.0001) %MON vort_p_mean                  =   9.7478626213493E-05
(PID.TID 0000.0001) %MON vort_p_sd                    =   3.9496705141382E-05
(PID.TID 0000.0001) %MON surfExpan_theta_mean         =   9.8640434694637E-09
(PID.TID 0000.0001) %MON surfExpan_salt_mean          =  -6.5127338477347E-22
(PID.TID 0000.0001) // =======================================================
(PID.TID 0000.0001) // End MONITOR dynamic field statistics
(PID.TID 0000.0001) // =======================================================
(PID.TID 0000.0001) %CHECKPOINT     21600 ckptB
 cg2d: Sum(rhs),rhsMax =  -2.04225525379798E-13  4.75912609985297E-01
 cg2d: Sum(rhs),rhsMax =  -2.20365392600286E-13  4.75814340881586E-01
 cg2d: Sum(rhs),rhsMax =   1.28647092978440E-13  4.75715703496867E-01
 cg2d: Sum(rhs),rhsMax =  -5.12784259498744E-14  4.75616687591190E-01
 cg2d: Sum(rhs),rhsMax =   5.71764857681956E-15  4.75521352801995E-01
 cg2d: Sum(rhs),rhsMax =  -2.42028619368284E-13  4.75425719756745E-01
 cg2d: Sum(rhs),rhsMax =   2.00534033822919E-14  4.75329599347080E-01
 cg2d: Sum(rhs),rhsMax =   4.47752945831326E-13  4.75232994477685E-01
 cg2d: Sum(rhs),rhsMax =  -2.10192974137158E-13  4.75135788844578E-01
 cg2d: Sum(rhs),rhsMax =   3.81666920290513E-13  4.75022099738641E-01
 cg2d: Sum(rhs),rhsMax =   2.38184472145520E-13  4.74835116065900E-01
 cg2d: Sum(rhs),rhsMax =  -4.91134910518554E-14  4.74645822256727E-01
 cg2d: Sum(rhs),rhsMax =   1.66713864935275E-13  4.74456774555014E-01
 cg2d: Sum(rhs),rhsMax =   5.56082957459125E-14  4.74267112453310E-01
 cg2d: Sum(rhs),rhsMax =  -1.60177426877794E-13  4.74076742566798E-01
 cg2d: Sum(rhs),rhsMax =   3.93671206744273E-13  4.73885460762822E-01
 cg2d: Sum(rhs),rhsMax =   2.53408405370692E-13  4.73693010767715E-01
 cg2d: Sum(rhs),rhsMax =  -3.27640692354692E-13  4.73499024009668E-01
 cg2d: Sum(rhs),rhsMax =  -1.51517687285718E-13  4.73302945156825E-01
 cg2d: Sum(rhs),rhsMax =  -6.62386812066984E-14  4.73103981164923E-01
 cg2d: Sum(rhs),rhsMax =  -8.50014503228635E-14  4.72900777308632E-01
 cg2d: Sum(rhs),rhsMax =  -4.17541001773714E-13  4.72690937063642E-01
 cg2d: Sum(rhs),rhsMax =  -1.96856420053848E-13  4.72470599192790E-01
 cg2d: Sum(rhs),rhsMax =   8.25034485174569E-14  4.72236669449996E-01
 cg2d: Sum(rhs),rhsMax =   3.33857941292592E-13  4.71994413004861E-01
 cg2d: Sum(rhs),rhsMax =   2.93792767891432E-14  4.71751042584394E-01
 cg2d: Sum(rhs),rhsMax =  -2.58904009342587E-13  4.71507564879328E-01
 cg2d: Sum(rhs),rhsMax =   6.71962485654376E-13  4.71263949869313E-01
 cg2d: Sum(rhs),rhsMax =  -8.56259507742152E-14  4.71020179936046E-01
 cg2d: Sum(rhs),rhsMax =   2.09179895627187E-13  4.70776038182886E-01
 cg2d: Sum(rhs),rhsMax =  -7.06046332510368E-13  4.70531503660394E-01
 cg2d: Sum(rhs),rhsMax =  -1.74485426107651E-13  4.70286318103435E-01
 cg2d: Sum(rhs),rhsMax =   1.24691923453213E-13  4.70040430875336E-01
 cg2d: Sum(rhs),rhsMax =   8.72080185843060E-14  4.69794039869387E-01
 cg2d: Sum(rhs),rhsMax =   1.58761892521397E-13  4.69547213438415E-01
 cg2d: Sum(rhs),rhsMax =  -1.87100335224955E-13  4.69300016547073E-01
 cg2d: Sum(rhs),rhsMax =   6.19559958892069E-13  4.69052505328509E-01
 cg2d: Sum(rhs),rhsMax =  -4.99877916837477E-14  4.68804761244474E-01
 cg2d: Sum(rhs),rhsMax =   3.11486947346395E-13  4.68556846766583E-01
 cg2d: Sum(rhs),rhsMax =   1.36002320516582E-14  4.68308790639341E-01
 cg2d: Sum(rhs),rhsMax =  -6.53921361504217E-14  4.68060658826284E-01
 cg2d: Sum(rhs),rhsMax =  -4.62338500817339E-13  4.67812517050842E-01
 cg2d: Sum(rhs),rhsMax =   2.22002971561608E-13  4.67564395317342E-01
 cg2d: Sum(rhs),rhsMax =  -1.99840144432528E-13  4.67316457947282E-01
 cg2d: Sum(rhs),rhsMax =   2.44027020812609E-13  4.67068620429753E-01
 cg2d: Sum(rhs),rhsMax =  -1.16948117856452E-13  4.66820833339194E-01
 cg2d: Sum(rhs),rhsMax =  -7.04714064880818E-14  4.66574105033899E-01
 cg2d: Sum(rhs),rhsMax =  -5.70238301023096E-14  4.66327078637232E-01
 cg2d: Sum(rhs),rhsMax =  -6.14230888373868E-14  4.66079928076048E-01
 cg2d: Sum(rhs),rhsMax =  -6.77791156533658E-14  4.65832565371346E-01
 cg2d: Sum(rhs),rhsMax =  -2.45775622076394E-13  4.65584897237614E-01
 cg2d: Sum(rhs),rhsMax =  -3.60655949549482E-13  4.65336838127839E-01
 cg2d: Sum(rhs),rhsMax =  -2.34035013590983E-13  4.65088293516090E-01
 cg2d: Sum(rhs),rhsMax =  -2.54712917424627E-13  4.64839120115996E-01
 cg2d: Sum(rhs),rhsMax =   3.82124887288171E-13  4.64589269477602E-01
 cg2d: Sum(rhs),rhsMax =  -1.82284742855643E-13  4.64338678979897E-01
 cg2d: Sum(rhs),rhsMax =  -3.63153951354889E-13  4.64087280750533E-01
 cg2d: Sum(rhs),rhsMax =   7.25350335351038E-13  4.63835035588651E-01
 cg2d: Sum(rhs),rhsMax =  -1.81646364616483E-13  4.63583571817072E-01
 cg2d: Sum(rhs),rhsMax =   2.46122566771589E-13  4.63331210751819E-01
 cg2d: Sum(rhs),rhsMax =   1.57554524982118E-13  4.63077924508524E-01
 cg2d: Sum(rhs),rhsMax =  -2.83106871279415E-14  4.62823778985859E-01
 cg2d: Sum(rhs),rhsMax =  -5.83838533074754E-14  4.62568861006872E-01
 cg2d: Sum(rhs),rhsMax =  -3.59129392890623E-13  4.62313280990805E-01
 cg2d: Sum(rhs),rhsMax =   1.28272392707629E-13  4.62057124875267E-01
 cg2d: Sum(rhs),rhsMax =  -5.96536708918904E-13  4.61800488388810E-01
 cg2d: Sum(rhs),rhsMax =  -2.38392638962637E-13  4.61543503727058E-01
 cg2d: Sum(rhs),rhsMax =  -2.22530327498305E-13  4.61286288409439E-01
 cg2d: Sum(rhs),rhsMax =  -3.21437321204598E-13  4.61028897010633E-01
 cg2d: Sum(rhs),rhsMax =   3.64111518713628E-13  4.60771526207894E-01
 cg2d: Sum(rhs),rhsMax =  -4.90552043430625E-13  4.60514223790523E-01
 cg2d: Sum(rhs),rhsMax =  -7.67580443650218E-14  4.60503761226683E-01
 cg2d: Sum(rhs),rhsMax =  -8.14071032806396E-14  4.60536866338861E-01
 cg2d: Sum(rhs),rhsMax =   8.56259507742152E-15  4.60570147110934E-01
 cg2d: Sum(rhs),rhsMax =  -4.64628335805628E-14  4.60603539717982E-01
 cg2d: Sum(rhs),rhsMax =  -1.00752739484733E-13  4.60636976982017E-01
 cg2d: Sum(rhs),rhsMax =  -3.16677239986518E-13  4.60670389141657E-01
 cg2d: Sum(rhs),rhsMax =  -2.41764941399936E-13  4.60703723331888E-01
 cg2d: Sum(rhs),rhsMax =   6.38517017037543E-14  4.60736932506152E-01
 cg2d: Sum(rhs),rhsMax =  -9.47159017883337E-14  4.60769993221101E-01
 cg2d: Sum(rhs),rhsMax =   5.37722644189387E-13  4.60802892837377E-01
 cg2d: Sum(rhs),rhsMax =  -2.96068725091914E-13  4.60835600116083E-01
 cg2d: Sum(rhs),rhsMax =  -2.39891440045881E-13  4.60868093237054E-01
 cg2d: Sum(rhs),rhsMax =  -1.20972676320719E-13  4.60900354728399E-01
 cg2d: Sum(rhs),rhsMax =   1.35155775460305E-13  4.60932374248319E-01
 cg2d: Sum(rhs),rhsMax =  -2.95291568974676E-13  4.60964057714141E-01
 cg2d: Sum(rhs),rhsMax =   2.73739364509140E-13  4.60995881015931E-01
 cg2d: Sum(rhs),rhsMax =  -4.48252546192407E-13  4.61033779888866E-01
 cg2d: Sum(rhs),rhsMax =  -1.89459559152283E-13  4.61070951276031E-01
 cg2d: Sum(rhs),rhsMax =   1.30798150088651E-13  4.61107152807200E-01
 cg2d: Sum(rhs),rhsMax =   7.33718641399150E-14  4.61142282353641E-01
 cg2d: Sum(rhs),rhsMax =  -1.42941214420489E-15  4.61176265557587E-01
 cg2d: Sum(rhs),rhsMax =   2.14619988447851E-13  4.61208976312996E-01
 cg2d: Sum(rhs),rhsMax =   2.45525821895853E-13  4.61240331349800E-01
 cg2d: Sum(rhs),rhsMax =   5.62744295606876E-14  4.61270281459464E-01
 cg2d: Sum(rhs),rhsMax =   2.16146545106710E-13  4.61298806879198E-01
 cg2d: Sum(rhs),rhsMax =  -2.48648324152612E-13  4.61325884081146E-01
 cg2d: Sum(rhs),rhsMax =  -3.36813910095657E-13  4.61351657285362E-01
 cg2d: Sum(rhs),rhsMax =   6.80566714095221E-14  4.61376175195229E-01
 cg2d: Sum(rhs),rhsMax =  -1.77968750847413E-13  4.61399488787882E-01
 cg2d: Sum(rhs),rhsMax =   7.73825448163734E-14  4.61421659634682E-01
 cg2d: Sum(rhs),rhsMax =   1.70558012158040E-13  4.61445349664794E-01
 cg2d: Sum(rhs),rhsMax =  -6.86339873823272E-13  4.61468163255662E-01
 cg2d: Sum(rhs),rhsMax =   1.46924139521332E-13  4.61490200246286E-01
 cg2d: Sum(rhs),rhsMax =  -2.25250373908636E-13  4.61511612013187E-01
 cg2d: Sum(rhs),rhsMax =   1.40554234917545E-13  4.61532495760222E-01
 cg2d: Sum(rhs),rhsMax =  -3.63598040564739E-13  4.61552927797338E-01
 cg2d: Sum(rhs),rhsMax =  -2.85466095206743E-14  4.61573017604686E-01
 cg2d: Sum(rhs),rhsMax =   1.02279296143593E-13  4.61583958340012E-01
 cg2d: Sum(rhs),rhsMax =  -3.88161724984570E-14  4.61594545552516E-01
 cg2d: Sum(rhs),rhsMax =   3.57130991446297E-13  4.61605185358393E-01
 cg2d: Sum(rhs),rhsMax =  -1.93428606465318E-13  4.61615773307213E-01
 cg2d: Sum(rhs),rhsMax =   3.07739944638286E-13  4.61626446712273E-01
 cg2d: Sum(rhs),rhsMax =  -1.47687417850761E-13  4.61637375340998E-01
 cg2d: Sum(rhs),rhsMax =  -7.63458740671297E-13  4.61648667728981E-01
 cg2d: Sum(rhs),rhsMax =   1.59983137848485E-13  4.61660435196749E-01
 cg2d: Sum(rhs),rhsMax =  -2.68618460808057E-13  4.61672763398173E-01
 cg2d: Sum(rhs),rhsMax =  -3.39672734384067E-13  4.61689525948454E-01
 cg2d: Sum(rhs),rhsMax =  -3.74741904174414E-13  4.61707038264887E-01
 cg2d: Sum(rhs),rhsMax =  -6.45372644214603E-13  4.61725183899204E-01
 cg2d: Sum(rhs),rhsMax =  -7.05754898966404E-13  4.61743995817285E-01
 cg2d: Sum(rhs),rhsMax =  -3.02674552088433E-14  4.61763313218787E-01
 cg2d: Sum(rhs),rhsMax =  -1.84477433329278E-13  4.61783070456994E-01
 cg2d: Sum(rhs),rhsMax =   3.54952178760470E-13  4.61803235564147E-01
 cg2d: Sum(rhs),rhsMax =  -3.98570065840431E-14  4.61823725660335E-01
 cg2d: Sum(rhs),rhsMax =   1.25316423904565E-13  4.61844628781463E-01
 cg2d: Sum(rhs),rhsMax =  -1.76247905159244E-15  4.61865642144717E-01
 cg2d: Sum(rhs),rhsMax =  -2.79040679451725E-13  4.61886921666920E-01
 cg2d: Sum(rhs),rhsMax =  -1.14935838624319E-13  4.61908359860697E-01
 cg2d: Sum(rhs),rhsMax =   4.07396338886201E-13  4.61929875187144E-01
 cg2d: Sum(rhs),rhsMax =   2.07389660999979E-13  4.61951374469436E-01
 cg2d: Sum(rhs),rhsMax =   2.62206922840846E-13  4.61972451798302E-01
 cg2d: Sum(rhs),rhsMax =  -2.74502642838570E-13  4.61997176777680E-01
 cg2d: Sum(rhs),rhsMax =   3.77961550945827E-13  4.62007937083653E-01
 cg2d: Sum(rhs),rhsMax =   1.88057902583694E-13  4.62017487021403E-01
 cg2d: Sum(rhs),rhsMax =  -1.89390170213244E-13  4.62026303172415E-01
 cg2d: Sum(rhs),rhsMax =   6.90419943438769E-14  4.62034185220609E-01
 cg2d: Sum(rhs),rhsMax =  -1.98202565471206E-13  4.62041085784090E-01
 cg2d: Sum(rhs),rhsMax =   8.02552468925910E-14  4.62047136007403E-01
 cg2d: Sum(rhs),rhsMax =   1.15324416682938E-14  4.62052312092472E-01
 cg2d: Sum(rhs),rhsMax =  -3.50608431176624E-13  4.62056647104620E-01
 cg2d: Sum(rhs),rhsMax =   3.44238526572838E-13  4.62060201434488E-01
 cg2d: Sum(rhs),rhsMax =  -1.67837965747708E-13  4.62063051296687E-01
 cg2d: Sum(rhs),rhsMax =  -2.46094811195974E-13  4.62065304228865E-01
 cg2d: Sum(rhs),rhsMax =  -1.15657483590326E-13  4.62035376245245E-01
 cg2d: Sum(rhs),rhsMax =   6.81399381363690E-14  4.61992971106481E-01
 cg2d: Sum(rhs),rhsMax =  -1.34614541735800E-15  4.61950854264111E-01
 cg2d: Sum(rhs),rhsMax =   3.45987127836622E-13  4.61909212867309E-01
 cg2d: Sum(rhs),rhsMax =   2.76084710648661E-13  4.61868004117854E-01
 cg2d: Sum(rhs),rhsMax =  -9.44661016077930E-14  4.61827259255996E-01
 cg2d: Sum(rhs),rhsMax =  -6.29399310447809E-13  4.61787003289759E-01
 cg2d: Sum(rhs),rhsMax =  -5.29964960804818E-13  4.61747257425939E-01
 cg2d: Sum(rhs),rhsMax =   4.79047357337947E-13  4.61708038872118E-01
 cg2d: Sum(rhs),rhsMax =   1.48561718482654E-13  4.61669367719483E-01
 cg2d: Sum(rhs),rhsMax =   1.17142406885762E-13  4.62076923636915E-01
 cg2d: Sum(rhs),rhsMax =   8.01303468023207E-14  4.62917998578103E-01
 cg2d: Sum(rhs),rhsMax =   7.24420523567915E-14  4.63756658442451E-01
 cg2d: Sum(rhs),rhsMax =   2.21392348898064E-13  4.64592511592702E-01
 cg2d: Sum(rhs),rhsMax =  -4.35901315043452E-13  4.65425595364895E-01
 cg2d: Sum(rhs),rhsMax =  -1.83381088092460E-13  4.66255839146192E-01
 cg2d: Sum(rhs),rhsMax =  -8.11059552852100E-13  4.67083173605067E-01
 cg2d: Sum(rhs),rhsMax =  -2.37226904786780E-13  4.67907536124377E-01
 cg2d: Sum(rhs),rhsMax =   1.14394604899815E-13  4.68728839329931E-01
 cg2d: Sum(rhs),rhsMax =  -3.62654350993807E-13  4.69546997004924E-01
 cg2d: Sum(rhs),rhsMax =   4.61741755941603E-13  4.70361869261266E-01
 cg2d: Sum(rhs),rhsMax =  -2.54671284061203E-13  4.71173064254591E-01
 cg2d: Sum(rhs),rhsMax =   6.10622663543836E-16  4.71980522889747E-01
 cg2d: Sum(rhs),rhsMax =  -4.93591278960537E-13  4.72783589228295E-01
 cg2d: Sum(rhs),rhsMax =  -1.57360235952808E-13  4.73582050924340E-01
 cg2d: Sum(rhs),rhsMax =  -3.03534974932518E-13  4.74375835058249E-01
 cg2d: Sum(rhs),rhsMax =   3.73479025483903E-13  4.75164970758872E-01
 cg2d: Sum(rhs),rhsMax =   6.32424668189913E-13  4.75949272265662E-01
 cg2d: Sum(rhs),rhsMax =   3.82513465346790E-13  4.76728398301969E-01
 cg2d: Sum(rhs),rhsMax =   4.51166881632048E-14  4.77502625199785E-01
 cg2d: Sum(rhs),rhsMax =  -1.61037849721879E-13  4.78271820533104E-01
 cg2d: Sum(rhs),rhsMax =  -5.97105698219025E-13  4.79035507318591E-01
 cg2d: Sum(rhs),rhsMax =   1.30173649637300E-14  4.79807733097927E-01
 cg2d: Sum(rhs),rhsMax =   2.43194353544141E-13  4.80572988860377E-01
 cg2d: Sum(rhs),rhsMax =  -8.42798053568572E-14  4.81330581490989E-01
 cg2d: Sum(rhs),rhsMax =  -2.42195152821978E-13  4.82060625268161E-01
 cg2d: Sum(rhs),rhsMax =   2.03295713596674E-13  4.82774689283970E-01
 cg2d: Sum(rhs),rhsMax =   1.37917455234060E-13  4.83481625745845E-01
 cg2d: Sum(rhs),rhsMax =   2.70825029069499E-13  4.84181606340008E-01
 cg2d: Sum(rhs),rhsMax =   3.79973830177960E-14  4.84874811285178E-01
 cg2d: Sum(rhs),rhsMax =   3.45265482870616E-13  4.85561640789824E-01
 cg2d: Sum(rhs),rhsMax =   5.02958785730812E-13  4.86242245431082E-01
 cg2d: Sum(rhs),rhsMax =   7.49580952863482E-13  4.86917217256996E-01
 cg2d: Sum(rhs),rhsMax =  -9.25093335268912E-14  4.87587071809594E-01
 cg2d: Sum(rhs),rhsMax =  -1.13034581694649E-13  4.88252480546444E-01
 cg2d: Sum(rhs),rhsMax =  -3.89674403855622E-13  4.88913639140974E-01
 cg2d: Sum(rhs),rhsMax =  -4.31960023306033E-13  4.89593232613819E-01
 cg2d: Sum(rhs),rhsMax =  -1.36904376724090E-13  4.90271763159958E-01
 cg2d: Sum(rhs),rhsMax =  -1.77260983669214E-13  4.90948324095861E-01
 cg2d: Sum(rhs),rhsMax =  -5.24302823379230E-14  4.91640025495291E-01
 cg2d: Sum(rhs),rhsMax =   2.64954724826794E-13  4.92337314119989E-01
 cg2d: Sum(rhs),rhsMax =   1.86170523441831E-13  4.93033034926862E-01
 cg2d: Sum(rhs),rhsMax =   5.23914245320611E-13  4.93727171876733E-01
 cg2d: Sum(rhs),rhsMax =   4.45019021633186E-13  4.94419764437306E-01
 cg2d: Sum(rhs),rhsMax =  -4.67390015579383E-13  4.95110827636068E-01
 cg2d: Sum(rhs),rhsMax =   6.35783092839404E-13  4.95800369082839E-01
 cg2d: Sum(rhs),rhsMax =  -4.73440731063590E-13  4.96488370627687E-01
 cg2d: Sum(rhs),rhsMax =   3.66165431309184E-13  4.97174766635774E-01
 cg2d: Sum(rhs),rhsMax =  -4.90496532279394E-13  4.97860199758930E-01
 cg2d: Sum(rhs),rhsMax =  -3.47291639890557E-13  4.98543976940074E-01
 cg2d: Sum(rhs),rhsMax =   7.01383395806943E-14  4.99226235161483E-01
 cg2d: Sum(rhs),rhsMax =  -1.96148652875650E-13  4.99906717460760E-01
 cg2d: Sum(rhs),rhsMax =  -2.68604583020249E-13  5.00585453022419E-01
 cg2d: Sum(rhs),rhsMax =  -5.31075183829444E-13  5.01262085860697E-01
 cg2d: Sum(rhs),rhsMax =   3.09349768023992E-13  5.01936218343190E-01
 cg2d: Sum(rhs),rhsMax =   6.03544991761851E-13  5.02607632012061E-01
 cg2d: Sum(rhs),rhsMax =   2.53880250156158E-13  5.03276803532135E-01
 cg2d: Sum(rhs),rhsMax =   8.82904860333156E-14  5.03944160160327E-01
 cg2d: Sum(rhs),rhsMax =   1.46022083313824E-13  5.04609833495622E-01
 cg2d: Sum(rhs),rhsMax =  -3.05727665406152E-14  5.05271391736256E-01
 cg2d: Sum(rhs),rhsMax =  -3.89827059521508E-14  5.05932269265710E-01
 cg2d: Sum(rhs),rhsMax =  -3.28431726259737E-13  5.06591296505832E-01
 cg2d: Sum(rhs),rhsMax =  -1.74762981863807E-13  5.07247430020370E-01
 cg2d: Sum(rhs),rhsMax =   3.34732241924485E-14  5.07903310765390E-01
 cg2d: Sum(rhs),rhsMax =  -5.68989300120393E-16  5.08559550599969E-01
 cg2d: Sum(rhs),rhsMax =   1.94552707277751E-13  5.09201005967209E-01
 cg2d: Sum(rhs),rhsMax =  -9.86433157379452E-14  5.09839503310876E-01
 cg2d: Sum(rhs),rhsMax =   1.39985245617424E-13  5.10475315267857E-01
 cg2d: Sum(rhs),rhsMax =  -8.33916269371571E-14  5.11108245317498E-01
 cg2d: Sum(rhs),rhsMax =  -2.53227994129190E-13  5.11738250540194E-01
 cg2d: Sum(rhs),rhsMax =  -9.73665592596262E-14  5.12365237176574E-01
 cg2d: Sum(rhs),rhsMax =  -4.93813323565462E-13  5.12989108756170E-01
 cg2d: Sum(rhs),rhsMax =  -1.59122715004401E-13  5.13609798081543E-01
 cg2d: Sum(rhs),rhsMax =  -2.51410003926367E-13  5.14227199639649E-01
 cg2d: Sum(rhs),rhsMax =  -6.83342271656784E-14  5.14841176609342E-01
 cg2d: Sum(rhs),rhsMax =  -1.80286341411318E-13  5.15451603267260E-01
 cg2d: Sum(rhs),rhsMax =   1.64493418886025E-13  5.16058342440025E-01
 cg2d: Sum(rhs),rhsMax =  -2.40751862889965E-13  5.16660615002271E-01
 cg2d: Sum(rhs),rhsMax =  -6.78221367955700E-13  5.17260007130917E-01
 cg2d: Sum(rhs),rhsMax =  -7.02632396709646E-14  5.17855517588465E-01
 cg2d: Sum(rhs),rhsMax =  -4.60381732736437E-13  5.18445457442179E-01
 cg2d: Sum(rhs),rhsMax =   1.77746706242488E-13  5.19032361727432E-01
 cg2d: Sum(rhs),rhsMax =  -1.27814425709971E-13  5.19615143711578E-01
 cg2d: Sum(rhs),rhsMax =   2.94347879403745E-13  5.20192000561725E-01
 cg2d: Sum(rhs),rhsMax =   3.39131500659562E-13  5.20765086752055E-01
 cg2d: Sum(rhs),rhsMax =   2.34576247315488E-13  5.21332742999997E-01
 cg2d: Sum(rhs),rhsMax =  -3.65305008465100E-13  5.21895007969214E-01
 cg2d: Sum(rhs),rhsMax =  -5.37347943918576E-13  5.22462102906111E-01
 cg2d: Sum(rhs),rhsMax =  -1.83728032787656E-13  5.23028308876546E-01
 cg2d: Sum(rhs),rhsMax =   5.83949555377217E-13  5.23587038493926E-01
 cg2d: Sum(rhs),rhsMax =   5.06816810741384E-14  5.24137965737630E-01
 cg2d: Sum(rhs),rhsMax =   3.18967074974807E-13  5.24680955774006E-01
 cg2d: Sum(rhs),rhsMax =  -3.85802501057242E-14  5.25215792108031E-01
 cg2d: Sum(rhs),rhsMax =   6.18977091804140E-13  5.25742337170034E-01
 cg2d: Sum(rhs),rhsMax =  -1.90680804479371E-13  5.26260631082899E-01
 cg2d: Sum(rhs),rhsMax =   2.45886644378857E-13  5.26770630517163E-01
 cg2d: Sum(rhs),rhsMax =   1.36418654150816E-13  5.27272331696341E-01
 cg2d: Sum(rhs),rhsMax =  -1.77718950666872E-13  5.27765756136673E-01
 cg2d: Sum(rhs),rhsMax =   3.31540350728687E-14  5.28212518159546E-01
 cg2d: Sum(rhs),rhsMax =  -2.67313948754122E-13  5.28651417384926E-01
 cg2d: Sum(rhs),rhsMax =   3.03784775113058E-14  5.29084038265260E-01
 cg2d: Sum(rhs),rhsMax =   1.60871316268185E-13  5.29510255968857E-01
 cg2d: Sum(rhs),rhsMax =  -2.59459120854899E-13  5.29930531841425E-01
 cg2d: Sum(rhs),rhsMax =   3.07684433487054E-13  5.30345138902557E-01
 cg2d: Sum(rhs),rhsMax =   4.55607773730549E-13  5.30753342103231E-01
 cg2d: Sum(rhs),rhsMax =   1.11410880521134E-13  5.31155107320266E-01
 cg2d: Sum(rhs),rhsMax =  -1.18668963544621E-13  5.31551981985053E-01
 cg2d: Sum(rhs),rhsMax =  -8.37108160567368E-14  5.31944263489544E-01
 cg2d: Sum(rhs),rhsMax =  -2.26277330206415E-13  5.32332223606448E-01
 cg2d: Sum(rhs),rhsMax =   1.28522192888170E-13  5.32716209258618E-01
 cg2d: Sum(rhs),rhsMax =  -1.59594559789866E-13  5.33097666624144E-01
 cg2d: Sum(rhs),rhsMax =   6.56558141187702E-14  5.33474630585603E-01
 cg2d: Sum(rhs),rhsMax =  -7.25114412958305E-14  5.33846763278376E-01
 cg2d: Sum(rhs),rhsMax =   7.91589016557737E-14  5.34214171060306E-01
 cg2d: Sum(rhs),rhsMax =   1.02862163231521E-13  5.34577996152158E-01
 cg2d: Sum(rhs),rhsMax =  -1.55847557081756E-14  5.34937163612255E-01
 cg2d: Sum(rhs),rhsMax =  -4.69096983479744E-13  5.35291992194727E-01
 cg2d: Sum(rhs),rhsMax =  -1.10356168647741E-13  5.35642627874490E-01
 cg2d: Sum(rhs),rhsMax =  -7.77156117237610E-14  5.35989316092874E-01
 cg2d: Sum(rhs),rhsMax =  -1.78981829357383E-13  5.36332273379886E-01
 cg2d: Sum(rhs),rhsMax =  -2.86298762475212E-14  5.36671658349759E-01
 cg2d: Sum(rhs),rhsMax =   1.38708489139105E-13  5.37007561518120E-01
 cg2d: Sum(rhs),rhsMax =   5.22901166810641E-13  5.37340056609019E-01
 cg2d: Sum(rhs),rhsMax =   2.51465515077598E-14  5.37669000580753E-01
 cg2d: Sum(rhs),rhsMax =   3.98944766111242E-13  5.37994340699952E-01
 cg2d: Sum(rhs),rhsMax =   2.24348317701129E-13  5.38316166113801E-01
 cg2d: Sum(rhs),rhsMax =   1.66269775725425E-13  5.38634488579476E-01
 cg2d: Sum(rhs),rhsMax =   3.29167249013551E-13  5.38949691834469E-01
 cg2d: Sum(rhs),rhsMax =   1.18474674515312E-13  5.39258189437330E-01
 cg2d: Sum(rhs),rhsMax =  -1.93442484253126E-13  5.39563013498658E-01
 cg2d: Sum(rhs),rhsMax =  -2.72393219091782E-13  5.39864212436607E-01
 cg2d: Sum(rhs),rhsMax =   2.66286992456344E-13  5.40161085352999E-01
 cg2d: Sum(rhs),rhsMax =  -2.71671574125776E-13  5.40454127426776E-01
 cg2d: Sum(rhs),rhsMax =   5.12243025774239E-13  5.40743096819821E-01
 cg2d: Sum(rhs),rhsMax =  -9.19542220145786E-14  5.41027939383331E-01
 cg2d: Sum(rhs),rhsMax =  -3.22214477321836E-13  5.41308595027222E-01
 cg2d: Sum(rhs),rhsMax =  -1.42511002998447E-13  5.41585005839040E-01
 cg2d: Sum(rhs),rhsMax =   1.73222547417140E-13  5.41857123034059E-01
 cg2d: Sum(rhs),rhsMax =   2.10872985739741E-13  5.42124919634127E-01
 cg2d: Sum(rhs),rhsMax =  -4.65738558830253E-14  5.42388318613656E-01
 cg2d: Sum(rhs),rhsMax =   5.10799735842227E-13  5.42649131335923E-01
 cg2d: Sum(rhs),rhsMax =   3.54993812123894E-14  5.42908129839776E-01
 cg2d: Sum(rhs),rhsMax =   4.76368944291039E-13  5.43165289646219E-01
 cg2d: Sum(rhs),rhsMax =  -4.51166881632048E-14  5.43420497413860E-01
 cg2d: Sum(rhs),rhsMax =   1.43038358935144E-13  5.43673829363212E-01
 cg2d: Sum(rhs),rhsMax =   2.37490582755129E-13  5.43925273747849E-01
 cg2d: Sum(rhs),rhsMax =  -1.83186799063151E-13  5.44174733623013E-01
 cg2d: Sum(rhs),rhsMax =  -3.02022296061466E-13  5.44399777911354E-01
 cg2d: Sum(rhs),rhsMax =   1.09634523681734E-14  5.44618762227669E-01
 cg2d: Sum(rhs),rhsMax =   2.86673462746023E-13  5.44832297018506E-01
 cg2d: Sum(rhs),rhsMax =  -3.98736599294125E-13  5.45040209675168E-01
 cg2d: Sum(rhs),rhsMax =  -3.44252404360645E-13  5.45242494081626E-01
 cg2d: Sum(rhs),rhsMax =  -1.85462756263632E-13  5.45438827224843E-01
 cg2d: Sum(rhs),rhsMax =  -3.07795455789517E-13  5.45628953344138E-01
 cg2d: Sum(rhs),rhsMax =   3.37840866393435E-13  5.45812591078449E-01
 cg2d: Sum(rhs),rhsMax =   5.04013497604205E-13  5.45989443162803E-01
 cg2d: Sum(rhs),rhsMax =  -6.84993728405914E-13  5.46159182193951E-01
 cg2d: Sum(rhs),rhsMax =  -3.82471831983366E-14  5.46321443118970E-01
 cg2d: Sum(rhs),rhsMax =  -2.48967513272191E-14  5.46476289923698E-01
 cg2d: Sum(rhs),rhsMax =  -1.46341272433403E-13  5.46638642142983E-01
 cg2d: Sum(rhs),rhsMax =  -1.56930024530766E-13  5.46793599866390E-01
 cg2d: Sum(rhs),rhsMax =   4.91259810608824E-13  5.46942233009899E-01
 cg2d: Sum(rhs),rhsMax =  -3.69371200292790E-13  5.47085789280836E-01
 cg2d: Sum(rhs),rhsMax =   7.91033905045424E-15  5.47224135089829E-01
 cg2d: Sum(rhs),rhsMax =  -2.21489493412719E-13  5.47357302517941E-01
 cg2d: Sum(rhs),rhsMax =  -2.05807593189888E-13  5.47485034239403E-01
 cg2d: Sum(rhs),rhsMax =  -2.23154827949656E-14  5.47607270635589E-01
 cg2d: Sum(rhs),rhsMax =   4.28546087505310E-14  5.47723822865282E-01
 cg2d: Sum(rhs),rhsMax =  -3.68399755146243E-13  5.47834707745251E-01
 cg2d: Sum(rhs),rhsMax =  -1.88266069400811E-13  5.47939886480520E-01
 cg2d: Sum(rhs),rhsMax =   2.62234678416462E-13  5.48038545879745E-01
 cg2d: Sum(rhs),rhsMax =   2.74905098684997E-13  5.48131403479778E-01
 cg2d: Sum(rhs),rhsMax =   1.84657844570779E-13  5.48146242659231E-01
 cg2d: Sum(rhs),rhsMax =  -2.62609378687273E-13  5.48084018013521E-01
 cg2d: Sum(rhs),rhsMax =   9.01084762361393E-14  5.48016215341797E-01
 cg2d: Sum(rhs),rhsMax =   4.38094005517087E-13  5.47943367139996E-01
 cg2d: Sum(rhs),rhsMax =   1.25538468509490E-13  5.47865614464540E-01
 cg2d: Sum(rhs),rhsMax =   8.81378303674296E-14  5.47783386228897E-01
 cg2d: Sum(rhs),rhsMax =   2.36963226818432E-13  5.47696777462658E-01
 cg2d: Sum(rhs),rhsMax =   3.73312492030209E-15  5.47605650320185E-01
 cg2d: Sum(rhs),rhsMax =   2.68285393900669E-13  5.47510358856084E-01
 cg2d: Sum(rhs),rhsMax =  -4.71150896075301E-13  5.47410797374495E-01
 cg2d: Sum(rhs),rhsMax =  -1.71904157575398E-13  5.47307228816791E-01
 cg2d: Sum(rhs),rhsMax =  -1.85240711658707E-13  5.47199697028922E-01
 cg2d: Sum(rhs),rhsMax =   4.84723372551343E-13  5.47088214362225E-01
 cg2d: Sum(rhs),rhsMax =  -3.02119440576121E-13  5.46972721888639E-01
 cg2d: Sum(rhs),rhsMax =   5.93219917632837E-13  5.46853058459153E-01
 cg2d: Sum(rhs),rhsMax =  -1.97897254139434E-13  5.46728883041971E-01
 cg2d: Sum(rhs),rhsMax =  -1.40151779071118E-13  5.46599770590963E-01
 cg2d: Sum(rhs),rhsMax =   1.21666565711109E-13  5.46465451833585E-01
 cg2d: Sum(rhs),rhsMax =  -1.20653487201139E-13  5.46326678525869E-01
 cg2d: Sum(rhs),rhsMax =  -4.10171896447764E-13  5.46184841955288E-01
 cg2d: Sum(rhs),rhsMax =   1.09218190047500E-14  5.46040634273226E-01
 cg2d: Sum(rhs),rhsMax =  -1.47049039611602E-13  5.45894232029447E-01
 cg2d: Sum(rhs),rhsMax =  -1.22332699525884E-13  5.45745653816042E-01
 cg2d: Sum(rhs),rhsMax =  -2.62165289477423E-13  5.45595012490569E-01
 cg2d: Sum(rhs),rhsMax =   2.77944334214908E-13  5.45442314120045E-01
 cg2d: Sum(rhs),rhsMax =  -5.59552404411079E-14  5.45287810502640E-01
 cg2d: Sum(rhs),rhsMax =  -5.24816301528119E-13  5.45131758176253E-01
 cg2d: Sum(rhs),rhsMax =  -2.80053757961696E-14  5.44973824091792E-01
 cg2d: Sum(rhs),rhsMax =   4.17957335407948E-13  5.44813806736758E-01
 cg2d: Sum(rhs),rhsMax =  -9.63812363252714E-14  5.44651538702694E-01
 cg2d: Sum(rhs),rhsMax =  -1.04374842102573E-13  5.44486967524327E-01
 cg2d: Sum(rhs),rhsMax =   1.22471477403963E-13  5.44319960922458E-01
 cg2d: Sum(rhs),rhsMax =   4.70595784562988E-14  5.44150946746045E-01
 cg2d: Sum(rhs),rhsMax =  -1.62120317170888E-13  5.43979797835780E-01
 cg2d: Sum(rhs),rhsMax =   2.00811589579075E-14  5.43806391230234E-01
 cg2d: Sum(rhs),rhsMax =   1.17961196366423E-13  5.43630639787551E-01
 cg2d: Sum(rhs),rhsMax =  -3.14304138271382E-13  5.43452554860198E-01
 cg2d: Sum(rhs),rhsMax =   1.67088565206086E-14  5.43272032471495E-01
 cg2d: Sum(rhs),rhsMax =   3.01259017732036E-13  5.43089171607567E-01
 cg2d: Sum(rhs),rhsMax =  -5.91873772215479E-13  5.42904075307737E-01
 cg2d: Sum(rhs),rhsMax =  -5.05470665324026E-13  5.42715951528034E-01
 cg2d: Sum(rhs),rhsMax =  -3.02063929424889E-13  5.42525485759440E-01
 cg2d: Sum(rhs),rhsMax =   9.79355485597466E-14  5.42332666932072E-01
 cg2d: Sum(rhs),rhsMax =  -2.77125544734247E-13  5.42137480357898E-01
 cg2d: Sum(rhs),rhsMax =  -2.40155118014229E-13  5.41939921318670E-01
 cg2d: Sum(rhs),rhsMax =   4.50736670210006E-13  5.41735193493432E-01
 cg2d: Sum(rhs),rhsMax =   9.43828348809461E-14  5.41528680450067E-01
 cg2d: Sum(rhs),rhsMax =  -4.65238958469172E-13  5.41320641526086E-01
 cg2d: Sum(rhs),rhsMax =   2.62470600809195E-13  5.41110652427523E-01
 cg2d: Sum(rhs),rhsMax =  -7.97417687437019E-14  5.40906310188963E-01
 cg2d: Sum(rhs),rhsMax =  -2.74058553628720E-13  5.40699801706683E-01
 cg2d: Sum(rhs),rhsMax =   2.05224726101960E-13  5.40490917625110E-01
 cg2d: Sum(rhs),rhsMax =   1.17544862732188E-14  5.40279904656799E-01
 cg2d: Sum(rhs),rhsMax =  -3.70453667741799E-13  5.40067998284541E-01
 cg2d: Sum(rhs),rhsMax =   1.34739441826071E-13  5.39853157774173E-01
 cg2d: Sum(rhs),rhsMax =  -3.12722070461291E-13  5.39635442135889E-01
 cg2d: Sum(rhs),rhsMax =   2.99607560982906E-13  5.39416372633283E-01
 cg2d: Sum(rhs),rhsMax =  -3.13832293485916E-13  5.39207893858477E-01
 cg2d: Sum(rhs),rhsMax =   1.96592742085500E-13  5.38996703546620E-01
 cg2d: Sum(rhs),rhsMax =   1.85587656353903E-13  5.38784187314492E-01
 cg2d: Sum(rhs),rhsMax =   2.86853873987525E-14  5.38568936157993E-01
 cg2d: Sum(rhs),rhsMax =  -4.58078019960340E-13  5.38350992555391E-01
 cg2d: Sum(rhs),rhsMax =   3.22894488924419E-13  5.38132011232337E-01
 cg2d: Sum(rhs),rhsMax =  -2.04572470074993E-13  5.37910486732845E-01
 cg2d: Sum(rhs),rhsMax =  -1.57596158345541E-13  5.37686460859309E-01
 cg2d: Sum(rhs),rhsMax =   9.45354905468321E-14  5.37461525602535E-01
 cg2d: Sum(rhs),rhsMax =  -3.33191807477817E-13  5.37233917080807E-01
 cg2d: Sum(rhs),rhsMax =   1.11397002733327E-13  5.37004718572980E-01
 cg2d: Sum(rhs),rhsMax =  -8.24618151540335E-14  5.36773379245773E-01
 cg2d: Sum(rhs),rhsMax =  -2.43624564966183E-13  5.36540231723411E-01
 cg2d: Sum(rhs),rhsMax =   1.86600734863873E-13  5.36305153761489E-01
 cg2d: Sum(rhs),rhsMax =  -1.15116249865821E-13  5.36068309306305E-01
 cg2d: Sum(rhs),rhsMax =   3.54397067248158E-13  5.35829593489966E-01
 cg2d: Sum(rhs),rhsMax =   1.03292374653563E-13  5.35588910759791E-01
 cg2d: Sum(rhs),rhsMax =   1.11577413974828E-13  5.35343017927894E-01
 cg2d: Sum(rhs),rhsMax =  -3.93185484170999E-13  5.35095161533775E-01
 cg2d: Sum(rhs),rhsMax =   3.48360229551758E-13  5.34845464417545E-01
 cg2d: Sum(rhs),rhsMax =   4.54136728222920E-13  5.34593871369099E-01
 cg2d: Sum(rhs),rhsMax =  -2.89601675973472E-13  5.34340279450557E-01
 cg2d: Sum(rhs),rhsMax =  -4.99822405686245E-13  5.34084465878232E-01
 cg2d: Sum(rhs),rhsMax =   1.97508676080815E-13  5.33826350998874E-01
 cg2d: Sum(rhs),rhsMax =  -1.26718080473154E-13  5.33565912469325E-01
 cg2d: Sum(rhs),rhsMax =   1.37390099297363E-14  5.33303157696820E-01
 cg2d: Sum(rhs),rhsMax =  -9.72139035937403E-14  5.33039716592885E-01
 cg2d: Sum(rhs),rhsMax =   6.80150380460987E-14  5.32779741452345E-01
 cg2d: Sum(rhs),rhsMax =  -2.58890131554779E-13  5.32542922627522E-01
 cg2d: Sum(rhs),rhsMax =  -1.77344250396061E-13  5.32306011098979E-01
 cg2d: Sum(rhs),rhsMax =   6.57807142090405E-15  5.32067859281261E-01
 cg2d: Sum(rhs),rhsMax =   1.46882506157908E-13  5.31828667302822E-01
 cg2d: Sum(rhs),rhsMax =   6.49202913649560E-14  5.31588204745818E-01
 cg2d: Sum(rhs),rhsMax =   1.68670633016177E-13  5.31346442797531E-01
 cg2d: Sum(rhs),rhsMax =   7.93115573216596E-14  5.31103294676652E-01
 cg2d: Sum(rhs),rhsMax =  -6.13620265710324E-13  5.30858679221820E-01
 cg2d: Sum(rhs),rhsMax =   1.11022302462516E-13  5.30612611382552E-01
 cg2d: Sum(rhs),rhsMax =  -1.14491749414469E-14  5.30365161984522E-01
 cg2d: Sum(rhs),rhsMax =   2.56697441081144E-13  5.30116475029836E-01
 cg2d: Sum(rhs),rhsMax =   6.90975054951082E-14  5.29867240678715E-01
 cg2d: Sum(rhs),rhsMax =  -4.31821245427955E-13  5.29617861726071E-01
 cg2d: Sum(rhs),rhsMax =  -2.76639822160973E-13  5.29367620586108E-01
 cg2d: Sum(rhs),rhsMax =  -8.43491942958963E-14  5.29116603295085E-01
 cg2d: Sum(rhs),rhsMax =   3.81389364534357E-13  5.28864954775075E-01
 cg2d: Sum(rhs),rhsMax =  -2.03545513777215E-13  5.28612721738119E-01
 cg2d: Sum(rhs),rhsMax =  -1.03236863502332E-13  5.28359863906831E-01
 cg2d: Sum(rhs),rhsMax =  -2.26929586233382E-13  5.28106530033890E-01
 cg2d: Sum(rhs),rhsMax =   1.65575886335034E-13  5.27852883751514E-01
 cg2d: Sum(rhs),rhsMax =   2.74766320806918E-13  5.27597018934239E-01
 cg2d: Sum(rhs),rhsMax =   3.95267152342171E-13  5.27341292255576E-01
 cg2d: Sum(rhs),rhsMax =   2.77722289609983E-13  5.27084970879088E-01
 cg2d: Sum(rhs),rhsMax =   2.28705943072782E-14  5.26830063510454E-01
 cg2d: Sum(rhs),rhsMax =  -5.56499291093360E-14  5.26575222783258E-01
 cg2d: Sum(rhs),rhsMax =   3.43600148333678E-13  5.26320323360693E-01
 cg2d: Sum(rhs),rhsMax =  -1.21333498803722E-13  5.26067281071535E-01
 cg2d: Sum(rhs),rhsMax =   3.41490724586890E-13  5.25814617733131E-01
 cg2d: Sum(rhs),rhsMax =   2.46816456161980E-13  5.25562155729354E-01
 cg2d: Sum(rhs),rhsMax =  -2.35422792371764E-13  5.25311708079153E-01
 cg2d: Sum(rhs),rhsMax =  -2.57821541893577E-13  5.25061792297080E-01
 cg2d: Sum(rhs),rhsMax =   4.59354776438659E-14  5.24811782803826E-01
 cg2d: Sum(rhs),rhsMax =   6.31023011621323E-14  5.24563646556243E-01
 cg2d: Sum(rhs),rhsMax =   3.44807515872958E-13  5.24315724640998E-01
 cg2d: Sum(rhs),rhsMax =  -2.51784704197178E-13  5.24068255771900E-01
 cg2d: Sum(rhs),rhsMax =  -2.44457232234652E-13  5.23821036236779E-01
 cg2d: Sum(rhs),rhsMax =  -2.29399832463173E-13  5.23574421294996E-01
 cg2d: Sum(rhs),rhsMax =  -1.52877710490884E-13  5.23328031562383E-01
 cg2d: Sum(rhs),rhsMax =  -3.13915560212763E-14  5.23081959698010E-01
 cg2d: Sum(rhs),rhsMax =   6.64190924482000E-14  5.22836046335735E-01
 cg2d: Sum(rhs),rhsMax =  -2.58293386679043E-13  5.22590260144256E-01
 cg2d: Sum(rhs),rhsMax =   4.42437753100933E-13  5.22344556049484E-01
 cg2d: Sum(rhs),rhsMax =  -2.34007258015367E-13  5.22099077592775E-01
 cg2d: Sum(rhs),rhsMax =  -2.69936850649799E-13  5.21853752952661E-01
 cg2d: Sum(rhs),rhsMax =  -6.82662260054201E-13  5.21608461138474E-01
 cg2d: Sum(rhs),rhsMax =   1.57429624891847E-13  5.21363177137565E-01
 cg2d: Sum(rhs),rhsMax =  -2.38947750474949E-13  5.21117855806492E-01
 cg2d: Sum(rhs),rhsMax =  -5.28188603965418E-14  5.20872553355053E-01
 cg2d: Sum(rhs),rhsMax =   1.83880688453542E-13  5.20627244853556E-01
 cg2d: Sum(rhs),rhsMax =  -2.90906188027407E-13  5.20381959463536E-01
 cg2d: Sum(rhs),rhsMax =   1.73486225385489E-13  5.20136679169844E-01
 cg2d: Sum(rhs),rhsMax =  -3.93324262049077E-13  5.19891540273471E-01
 cg2d: Sum(rhs),rhsMax =   7.95613575022003E-14  5.19646561363078E-01
 cg2d: Sum(rhs),rhsMax =  -3.16496828745017E-13  5.19401800461517E-01
 cg2d: Sum(rhs),rhsMax =   2.61346499996762E-13  5.19157104108854E-01
 cg2d: Sum(rhs),rhsMax =  -4.66293670342566E-14  5.18911948582748E-01
 cg2d: Sum(rhs),rhsMax =  -2.36352604154888E-13  5.18665784046457E-01
 cg2d: Sum(rhs),rhsMax =  -3.32858740570430E-13  5.18419680418910E-01
 cg2d: Sum(rhs),rhsMax =  -1.02862163231521E-13  5.18173702021085E-01
 cg2d: Sum(rhs),rhsMax =   2.41057174221737E-13  5.17927871424426E-01
 cg2d: Sum(rhs),rhsMax =   6.03503358398427E-13  5.17682253094308E-01
 cg2d: Sum(rhs),rhsMax =   5.51059198272696E-13  5.17436932469433E-01
 cg2d: Sum(rhs),rhsMax =   5.21110932183433E-14  5.17191994318093E-01
 cg2d: Sum(rhs),rhsMax =   8.50292058984792E-14  5.16947616130067E-01
 cg2d: Sum(rhs),rhsMax =   9.27175003440084E-14  5.16703860556691E-01
 cg2d: Sum(rhs),rhsMax =  -3.30402372128447E-13  5.16462998956776E-01
 cg2d: Sum(rhs),rhsMax =   1.81660242404291E-14  5.16223109711722E-01
 cg2d: Sum(rhs),rhsMax =  -5.40359423872872E-13  5.15983804962031E-01
 cg2d: Sum(rhs),rhsMax =   1.66117120059539E-13  5.15745145214591E-01
 cg2d: Sum(rhs),rhsMax =   3.01120239853958E-13  5.15507176796056E-01
 cg2d: Sum(rhs),rhsMax =  -3.01147995429574E-15  5.15269921939728E-01
 cg2d: Sum(rhs),rhsMax =   6.00644534110018E-13  5.15033397594773E-01
 cg2d: Sum(rhs),rhsMax =   5.68850522242315E-14  5.14797585475565E-01
 cg2d: Sum(rhs),rhsMax =   3.23754911768503E-13  5.14562512252168E-01
 cg2d: Sum(rhs),rhsMax =   1.77663439515641E-13  5.14328175267547E-01
 cg2d: Sum(rhs),rhsMax =   4.37608282943813E-13  5.14094549744567E-01
 cg2d: Sum(rhs),rhsMax =  -2.58057464286310E-13  5.13861578594670E-01
 cg2d: Sum(rhs),rhsMax =  -3.56339957541252E-13  5.13629264296189E-01
 cg2d: Sum(rhs),rhsMax =  -1.60760293965723E-13  5.13397596594647E-01
 cg2d: Sum(rhs),rhsMax =  -4.18706735949570E-13  5.13166561598006E-01
 cg2d: Sum(rhs),rhsMax =   4.73454608851398E-13  5.12936134198564E-01
 cg2d: Sum(rhs),rhsMax =  -2.17340034858182E-13  5.12706288786099E-01
 cg2d: Sum(rhs),rhsMax =   5.98132654516803E-13  5.12477146741734E-01
 cg2d: Sum(rhs),rhsMax =  -4.54442039554692E-13  5.12248821767433E-01
 cg2d: Sum(rhs),rhsMax =  -8.60284066206418E-14  5.12021309983501E-01
 cg2d: Sum(rhs),rhsMax =  -2.13717932240343E-15  5.11794588145486E-01
 cg2d: Sum(rhs),rhsMax =  -6.49591491708179E-13  5.11568563513304E-01
 cg2d: Sum(rhs),rhsMax =  -3.77337050494475E-14  5.11343006137104E-01
 cg2d: Sum(rhs),rhsMax =   1.91333060506338E-13  5.11117485017784E-01
 cg2d: Sum(rhs),rhsMax =   5.05970265685107E-13  5.10892382140133E-01
 cg2d: Sum(rhs),rhsMax =  -4.94326801714351E-14  5.10667662602462E-01
 cg2d: Sum(rhs),rhsMax =   7.31359417471822E-14  5.10442870203090E-01
 cg2d: Sum(rhs),rhsMax =  -3.62695984357231E-13  5.10218396776730E-01
 cg2d: Sum(rhs),rhsMax =  -8.49875725350557E-14  5.09994232168127E-01
 cg2d: Sum(rhs),rhsMax =   8.21287482466460E-14  5.09770372539945E-01
 cg2d: Sum(rhs),rhsMax =  -1.60038648999716E-13  5.09546825915801E-01
 cg2d: Sum(rhs),rhsMax =  -4.02289312972925E-13  5.09323632848103E-01
 cg2d: Sum(rhs),rhsMax =  -2.98247537777740E-13  5.09100827794520E-01
 cg2d: Sum(rhs),rhsMax =  -1.52669543673767E-13  5.08878405469733E-01
 cg2d: Sum(rhs),rhsMax =  -1.28147492617359E-13  5.08656390018447E-01
 cg2d: Sum(rhs),rhsMax =  -1.49866230536588E-13  5.08434963622432E-01
 cg2d: Sum(rhs),rhsMax =  -6.48300857442052E-13  5.08214323551596E-01
 cg2d: Sum(rhs),rhsMax =  -3.36716765581002E-13  5.07994419983411E-01
 cg2d: Sum(rhs),rhsMax =  -1.34781075189494E-13  5.07775315032518E-01
 cg2d: Sum(rhs),rhsMax =   3.56631391085216E-13  5.07556993395722E-01
 cg2d: Sum(rhs),rhsMax =   2.02532435267244E-13  5.07339287122528E-01
 cg2d: Sum(rhs),rhsMax =   4.36428670980149E-13  5.07122191825570E-01
 cg2d: Sum(rhs),rhsMax =  -2.81857870376712E-13  5.06905883954479E-01
 cg2d: Sum(rhs),rhsMax =  -1.66422431391311E-13  5.06690279873653E-01
 cg2d: Sum(rhs),rhsMax =   1.34489641645530E-13  5.06475420182217E-01
 cg2d: Sum(rhs),rhsMax =  -7.98361377007950E-13  5.06261301040863E-01
 cg2d: Sum(rhs),rhsMax =  -3.53633788918728E-13  5.06048277200380E-01
 cg2d: Sum(rhs),rhsMax =  -1.62453384078276E-13  5.05835946580913E-01
 cg2d: Sum(rhs),rhsMax =  -5.38610822609087E-13  5.05624322267445E-01
 cg2d: Sum(rhs),rhsMax =  -3.48568396368876E-13  5.05413338411774E-01
 cg2d: Sum(rhs),rhsMax =   1.02154396053322E-13  5.05202926261037E-01
 cg2d: Sum(rhs),rhsMax =  -4.08381661820556E-13  5.04993309995398E-01
 cg2d: Sum(rhs),rhsMax =   3.42365025218783E-13  5.04784560386043E-01
 cg2d: Sum(rhs),rhsMax =   8.02913291408913E-13  5.04577431335782E-01
 cg2d: Sum(rhs),rhsMax =  -1.60399471482719E-13  5.04371408128797E-01
 cg2d: Sum(rhs),rhsMax =  -6.50590692430342E-14  5.04166492654297E-01
 cg2d: Sum(rhs),rhsMax =   4.39370761995406E-14  5.03962772763811E-01
 cg2d: Sum(rhs),rhsMax =   1.14117049143658E-13  5.03760246967539E-01
 cg2d: Sum(rhs),rhsMax =   1.16254228466062E-13  5.03558974783581E-01
 cg2d: Sum(rhs),rhsMax =   1.91804905291804E-13  5.03359214160854E-01
 cg2d: Sum(rhs),rhsMax =   6.82787160144471E-14  5.03160982869775E-01
 cg2d: Sum(rhs),rhsMax =   3.26724758359376E-13  5.02964347925407E-01
 cg2d: Sum(rhs),rhsMax =   2.52478593587568E-13  5.02769364134143E-01
 cg2d: Sum(rhs),rhsMax =   4.08617584213289E-13  5.02576061568588E-01
 cg2d: Sum(rhs),rhsMax =   5.08662556519823E-13  5.02384480539652E-01
 cg2d: Sum(rhs),rhsMax =  -4.43978187547600E-13  5.02194648809820E-01
 cg2d: Sum(rhs),rhsMax =  -1.26107457809610E-13  5.02006581111211E-01
 cg2d: Sum(rhs),rhsMax =   5.99423288782930E-13  5.01822180456000E-01
 cg2d: Sum(rhs),rhsMax =  -4.86818918510323E-13  5.01639630914548E-01
 cg2d: Sum(rhs),rhsMax =  -3.35356742375836E-13  5.01458877943205E-01
 cg2d: Sum(rhs),rhsMax =  -4.01359501189802E-13  5.01279928629900E-01
 cg2d: Sum(rhs),rhsMax =  -4.27879953690535E-13  5.01102732683026E-01
 cg2d: Sum(rhs),rhsMax =  -2.61027310877182E-13  5.00919095939244E-01
 cg2d: Sum(rhs),rhsMax =  -1.23540067065164E-13  5.00725283292478E-01
 cg2d: Sum(rhs),rhsMax =   9.21901444073114E-14  5.00532952377047E-01
 cg2d: Sum(rhs),rhsMax =  -7.48387463112010E-13  5.00342297890914E-01
 cg2d: Sum(rhs),rhsMax =   1.68920433196718E-13  5.00153160161781E-01
 cg2d: Sum(rhs),rhsMax =  -5.66283131497869E-13  4.99965489364740E-01
 cg2d: Sum(rhs),rhsMax =  -3.01328406671075E-13  4.99779238272624E-01
 cg2d: Sum(rhs),rhsMax =  -6.33104679792496E-13  4.99594366452350E-01
 cg2d: Sum(rhs),rhsMax =   3.83637566159223E-13  4.99410822846388E-01
 cg2d: Sum(rhs),rhsMax =   1.08454911718070E-13  4.99228559420266E-01
 cg2d: Sum(rhs),rhsMax =  -5.21263587849319E-13  4.99047536389658E-01
 cg2d: Sum(rhs),rhsMax =   3.67539332302158E-13  4.98867713856997E-01
 cg2d: Sum(rhs),rhsMax =   1.72209468907170E-13  4.98689052921339E-01
 cg2d: Sum(rhs),rhsMax =  -1.55653268052447E-13  4.98511414300199E-01
 cg2d: Sum(rhs),rhsMax =   1.20931042957295E-13  4.98334780693793E-01
 cg2d: Sum(rhs),rhsMax =  -3.64527852347862E-13  4.98160750180345E-01
 cg2d: Sum(rhs),rhsMax =  -7.37049310473026E-14  4.97987721087265E-01
 cg2d: Sum(rhs),rhsMax =   1.17642007246843E-13  4.97815660437544E-01
 cg2d: Sum(rhs),rhsMax =   2.16396345287251E-13  4.97644573669505E-01
 cg2d: Sum(rhs),rhsMax =  -4.49210113551146E-13  4.97474431481150E-01
 cg2d: Sum(rhs),rhsMax =  -4.09339229179295E-13  4.97305170303675E-01
 cg2d: Sum(rhs),rhsMax =   1.86337056895525E-13  4.97136832611061E-01
 cg2d: Sum(rhs),rhsMax =  -1.27398092075737E-13  4.96969390332681E-01
 cg2d: Sum(rhs),rhsMax =  -2.05585548584963E-13  4.96802882346560E-01
 cg2d: Sum(rhs),rhsMax =  -3.35842464949110E-13  4.96636503683911E-01
 cg2d: Sum(rhs),rhsMax =   2.14966933143046E-14  4.96470766624698E-01
 cg2d: Sum(rhs),rhsMax =  -2.47801779096335E-13  4.96305718432412E-01
 cg2d: Sum(rhs),rhsMax =  -2.39738784379995E-13  4.96141394241048E-01
 cg2d: Sum(rhs),rhsMax =  -1.87599935586036E-13  4.95977810055073E-01
 cg2d: Sum(rhs),rhsMax =   2.99898994526870E-13  4.95814822296913E-01
 cg2d: Sum(rhs),rhsMax =   4.04190569902596E-13  4.95652470542131E-01
 cg2d: Sum(rhs),rhsMax =  -4.27852198114920E-13  4.95490781425630E-01
 cg2d: Sum(rhs),rhsMax =   3.05450109649996E-13  4.95329822979820E-01
 cg2d: Sum(rhs),rhsMax =   2.02379779601358E-13  4.95169639866165E-01
 cg2d: Sum(rhs),rhsMax =  -4.60464999463284E-14  4.95010219169652E-01
 cg2d: Sum(rhs),rhsMax =   6.17561557447743E-14  4.94851514082597E-01
 cg2d: Sum(rhs),rhsMax =   4.43034497976669E-13  4.94693533212006E-01
 cg2d: Sum(rhs),rhsMax =  -1.13478670904499E-13  4.94536264604443E-01
 cg2d: Sum(rhs),rhsMax =  -3.79349329726608E-13  4.94380502443028E-01
 cg2d: Sum(rhs),rhsMax =  -7.11930514540882E-14  4.94225689564659E-01
 cg2d: Sum(rhs),rhsMax =   1.22762910947927E-13  4.94071357397928E-01
 cg2d: Sum(rhs),rhsMax =  -2.01713645786583E-13  4.93917412633297E-01
 cg2d: Sum(rhs),rhsMax =  -7.42739203474230E-14  4.93763726973085E-01
 cg2d: Sum(rhs),rhsMax =   2.63691846136282E-13  4.93610227716925E-01
 cg2d: Sum(rhs),rhsMax =   5.76483305536613E-14  4.93456816476462E-01
 cg2d: Sum(rhs),rhsMax =   1.26565424807268E-14  4.93303404326945E-01
 cg2d: Sum(rhs),rhsMax =  -3.17426640528140E-13  4.93149911384935E-01
 cg2d: Sum(rhs),rhsMax =   2.73808753448179E-13  4.92996245698292E-01
 cg2d: Sum(rhs),rhsMax =   1.63979940737136E-13  4.92842206017630E-01
 cg2d: Sum(rhs),rhsMax =   7.42614303383959E-13  4.92687502144389E-01
 cg2d: Sum(rhs),rhsMax =  -7.14941994495177E-13  4.92533114226948E-01
 cg2d: Sum(rhs),rhsMax =   3.14692716330001E-13  4.92377962921445E-01
 cg2d: Sum(rhs),rhsMax =   4.15500966965965E-14  4.92222021970562E-01
 cg2d: Sum(rhs),rhsMax =  -4.58980076167848E-13  4.92065299828540E-01
 cg2d: Sum(rhs),rhsMax =  -2.91350277237257E-13  4.91907766881805E-01
 cg2d: Sum(rhs),rhsMax =  -2.24528728942630E-13  4.91749380790421E-01
 cg2d: Sum(rhs),rhsMax =   1.82118209401949E-13  4.91590095368439E-01
 cg2d: Sum(rhs),rhsMax =  -1.20320420293751E-13  4.91430032599630E-01
 cg2d: Sum(rhs),rhsMax =   2.55045984332014E-13  4.91269258724571E-01
 cg2d: Sum(rhs),rhsMax =  -4.45588010933307E-13  4.91107848890717E-01
 cg2d: Sum(rhs),rhsMax =  -9.58816359641901E-14  4.90945900518150E-01
 cg2d: Sum(rhs),rhsMax =   3.43280959214098E-13  4.90783427372774E-01
 cg2d: Sum(rhs),rhsMax =   5.07649478009853E-14  4.90620541319285E-01
 cg2d: Sum(rhs),rhsMax =   5.26481636065057E-13  4.90457331621240E-01
 cg2d: Sum(rhs),rhsMax =  -2.56017429478561E-13  4.90293871151450E-01
 cg2d: Sum(rhs),rhsMax =   4.07368583310586E-13  4.90130231038284E-01
 cg2d: Sum(rhs),rhsMax =   1.77025061276481E-13  4.89966470869082E-01
 cg2d: Sum(rhs),rhsMax =  -1.30090382910453E-13  4.89802652830665E-01
 cg2d: Sum(rhs),rhsMax =  -1.31020194693576E-13  4.89638823754893E-01
 cg2d: Sum(rhs),rhsMax =  -1.43191014601030E-13  4.89475056094689E-01
 cg2d: Sum(rhs),rhsMax =   4.86416462663897E-14  4.89311438449858E-01
 cg2d: Sum(rhs),rhsMax =   8.81794637308531E-14  4.89148073116669E-01
 cg2d: Sum(rhs),rhsMax =  -2.86159984597134E-13  4.88985059362870E-01
 cg2d: Sum(rhs),rhsMax =  -1.82076576038526E-13  4.88822452619855E-01
 cg2d: Sum(rhs),rhsMax =   4.56995552511330E-13  4.88660342243531E-01
 cg2d: Sum(rhs),rhsMax =   1.32963084986670E-13  4.88498862284509E-01
 cg2d: Sum(rhs),rhsMax =  -4.42063052830122E-13  4.88338083726427E-01
 cg2d: Sum(rhs),rhsMax =  -5.09051134578442E-13  4.88176455923233E-01
 cg2d: Sum(rhs),rhsMax =  -4.29489777076242E-13  4.88015438919306E-01
 cg2d: Sum(rhs),rhsMax =  -5.48450174164827E-14  4.87855120889256E-01
 cg2d: Sum(rhs),rhsMax =   1.14422360475430E-13  4.87695383226899E-01
 cg2d: Sum(rhs),rhsMax =   7.47180095572730E-14  4.87536229473020E-01
 cg2d: Sum(rhs),rhsMax =  -3.93310384261270E-13  4.87377888899361E-01
 cg2d: Sum(rhs),rhsMax =  -2.50022225145585E-13  4.87220296186425E-01
 cg2d: Sum(rhs),rhsMax =  -2.09443573595536E-13  4.87063384299457E-01
 cg2d: Sum(rhs),rhsMax =  -1.52919343854307E-13  4.86907059757845E-01
 cg2d: Sum(rhs),rhsMax =   3.31540350728687E-14  4.86751189539735E-01
 cg2d: Sum(rhs),rhsMax =  -5.09273179183367E-13  4.86595677088857E-01
 cg2d: Sum(rhs),rhsMax =   3.48540640793260E-13  4.86440407409053E-01
 cg2d: Sum(rhs),rhsMax =   1.09107167745037E-13  4.86285299288541E-01
 cg2d: Sum(rhs),rhsMax =  -4.74204009393020E-14  4.86130289654233E-01
 cg2d: Sum(rhs),rhsMax =   1.42011402637365E-13  4.85975212800512E-01
 cg2d: Sum(rhs),rhsMax =   1.62356239563621E-13  4.85819988817494E-01
 cg2d: Sum(rhs),rhsMax =  -2.89865353941821E-13  4.85664531040355E-01
 cg2d: Sum(rhs),rhsMax =   4.13738487914372E-13  4.85508784779224E-01
 cg2d: Sum(rhs),rhsMax =   9.44799793956008E-14  4.85352682027478E-01
 cg2d: Sum(rhs),rhsMax =   2.53380649795076E-13  4.85196182630151E-01
 cg2d: Sum(rhs),rhsMax =  -4.04648536900254E-13  4.85039173163002E-01
 cg2d: Sum(rhs),rhsMax =   1.29937727244567E-13  4.84881660734625E-01
 cg2d: Sum(rhs),rhsMax =  -2.45206632776274E-13  4.84723651553442E-01
 cg2d: Sum(rhs),rhsMax =   1.53571599881275E-13  4.84565155206323E-01
 cg2d: Sum(rhs),rhsMax =  -1.56430424169685E-13  4.84406206550364E-01
 cg2d: Sum(rhs),rhsMax =  -5.11063413810575E-13  4.84246860080734E-01
 cg2d: Sum(rhs),rhsMax =   5.37667133038155E-13  4.84087176217536E-01
 cg2d: Sum(rhs),rhsMax =  -2.42916797787984E-13  4.83924211912280E-01
 cg2d: Sum(rhs),rhsMax =   3.97779031935386E-13  4.83761017854579E-01
 cg2d: Sum(rhs),rhsMax =  -3.29070104498896E-13  4.83597834161275E-01
 cg2d: Sum(rhs),rhsMax =  -7.08405556437697E-13  4.83434742445914E-01
 cg2d: Sum(rhs),rhsMax =  -3.88286625074841E-13  4.83271869440176E-01
 cg2d: Sum(rhs),rhsMax =   3.42711969913978E-13  4.83109326064661E-01
 cg2d: Sum(rhs),rhsMax =   1.16559539797834E-13  4.82947266657430E-01
 cg2d: Sum(rhs),rhsMax =   1.40998324127395E-13  4.82785874567318E-01
 cg2d: Sum(rhs),rhsMax =  -8.75688410673092E-15  4.82625049372332E-01
 cg2d: Sum(rhs),rhsMax =   4.02039512792385E-13  4.82465069880559E-01
 cg2d: Sum(rhs),rhsMax =  -6.34353680695199E-14  4.82306013535531E-01
 cg2d: Sum(rhs),rhsMax =   3.87578857896642E-13  4.82147948014285E-01
 cg2d: Sum(rhs),rhsMax =  -2.80234169203197E-13  4.81991023950225E-01
 cg2d: Sum(rhs),rhsMax =   1.33087985076941E-13  4.81835582839589E-01
 cg2d: Sum(rhs),rhsMax =  -4.08326150669325E-13  4.81681184760649E-01
 cg2d: Sum(rhs),rhsMax =  -9.16766662584223E-14  4.81527835342408E-01
 cg2d: Sum(rhs),rhsMax =   9.13158437754191E-15  4.81375461594954E-01
 cg2d: Sum(rhs),rhsMax =   2.62331822931117E-13  4.81224038791342E-01
 cg2d: Sum(rhs),rhsMax =  -4.65349980771634E-13  4.81073538629054E-01
 cg2d: Sum(rhs),rhsMax =  -6.16867668057353E-14  4.80923919809886E-01
 cg2d: Sum(rhs),rhsMax =   1.31658572932736E-13  4.80774548705225E-01
 cg2d: Sum(rhs),rhsMax =  -3.09904879536305E-13  4.80625906540627E-01
 cg2d: Sum(rhs),rhsMax =   6.82232048632159E-14  4.80477942742909E-01
 cg2d: Sum(rhs),rhsMax =  -4.13558076672871E-15  4.80330593946388E-01
 cg2d: Sum(rhs),rhsMax =  -2.93681745588970E-13  4.80183817189968E-01
 cg2d: Sum(rhs),rhsMax =  -5.23747711866918E-14  4.80037540522907E-01
 cg2d: Sum(rhs),rhsMax =   2.22627472012960E-13  4.79891605595412E-01
 cg2d: Sum(rhs),rhsMax =  -4.25728896580324E-13  4.79746028281942E-01
 cg2d: Sum(rhs),rhsMax =   1.19473875237475E-13  4.79599949808391E-01
 cg2d: Sum(rhs),rhsMax =   1.48187018211843E-13  4.79454050854117E-01
 cg2d: Sum(rhs),rhsMax =  -4.62685445512534E-13  4.79308290273541E-01
 cg2d: Sum(rhs),rhsMax =  -4.38288294546396E-13  4.79162618258364E-01
 cg2d: Sum(rhs),rhsMax =  -1.31936128688892E-13  4.79017014751237E-01
 cg2d: Sum(rhs),rhsMax =  -1.23928645123783E-13  4.78871481291435E-01
 cg2d: Sum(rhs),rhsMax =  -2.10956252466588E-13  4.78726010229138E-01
 cg2d: Sum(rhs),rhsMax =   3.82985310132256E-13  4.78580623284687E-01
 cg2d: Sum(rhs),rhsMax =   5.08523778641745E-13  4.78435348259032E-01
 cg2d: Sum(rhs),rhsMax =  -5.47756284774437E-14  4.78290226625892E-01
 cg2d: Sum(rhs),rhsMax =   1.88682403035045E-13  4.78145310890020E-01
 cg2d: Sum(rhs),rhsMax =   2.00478522671688E-13  4.78000660964302E-01
 cg2d: Sum(rhs),rhsMax =  -2.22946661132539E-13  4.77856355832260E-01
 cg2d: Sum(rhs),rhsMax =   4.81267803387198E-13  4.77713956715069E-01
 cg2d: Sum(rhs),rhsMax =  -4.62963001268690E-14  4.77572012687867E-01
 cg2d: Sum(rhs),rhsMax =   2.19962936753859E-14  4.77430608435757E-01
 cg2d: Sum(rhs),rhsMax =   7.30512872415545E-13  4.77289748331010E-01
 cg2d: Sum(rhs),rhsMax =  -5.13103448618324E-13  4.77149401976336E-01
 cg2d: Sum(rhs),rhsMax =   2.07708850119559E-13  4.77009628183335E-01
 cg2d: Sum(rhs),rhsMax =  -2.31994978783234E-13  4.76870493408802E-01
 cg2d: Sum(rhs),rhsMax =  -3.15789061566818E-13  4.76732064981444E-01
 cg2d: Sum(rhs),rhsMax =  -2.02837746599016E-13  4.76594361489083E-01
 cg2d: Sum(rhs),rhsMax =  -5.81062975513191E-14  4.76457437919791E-01
 cg2d: Sum(rhs),rhsMax =  -3.32234240119078E-13  4.76321337901073E-01
 cg2d: Sum(rhs),rhsMax =  -3.79279940787569E-14  4.76186096515472E-01
 cg2d: Sum(rhs),rhsMax =   1.03250741290140E-13  4.76051720730827E-01
 cg2d: Sum(rhs),rhsMax =   3.80265263721924E-13  4.75918209544447E-01
 cg2d: Sum(rhs),rhsMax =   2.57419086047150E-13  4.75785547302099E-01
 cg2d: Sum(rhs),rhsMax =  -4.12864187282480E-14  4.75653716109438E-01
 cg2d: Sum(rhs),rhsMax =  -1.96495597570845E-13  4.75522697402003E-01
 cg2d: Sum(rhs),rhsMax =   2.60860777423488E-13  4.75392278917105E-01
 cg2d: Sum(rhs),rhsMax =   3.17801340798951E-14  4.75262612849779E-01
 cg2d: Sum(rhs),rhsMax =   8.84986528504328E-14  4.75133589469622E-01
 cg2d: Sum(rhs),rhsMax =   1.81687997979907E-13  4.75005137226694E-01
 cg2d: Sum(rhs),rhsMax =   2.67036392997966E-13  4.74877174268404E-01
 cg2d: Sum(rhs),rhsMax =   2.80331313717852E-15  4.74749649151922E-01
 cg2d: Sum(rhs),rhsMax =  -5.30131494258512E-14  4.74622468509200E-01
 cg2d: Sum(rhs),rhsMax =  -4.74481565149176E-14  4.74495568177933E-01
 cg2d: Sum(rhs),rhsMax =   1.04639907849702E-12  4.74370533019195E-01
 cg2d: Sum(rhs),rhsMax =  -1.75831571525009E-14  4.74245637751839E-01
 cg2d: Sum(rhs),rhsMax =   1.92290627865077E-13  4.74120805113632E-01
 cg2d: Sum(rhs),rhsMax =   1.85226833870900E-13  4.73996009093293E-01
 cg2d: Sum(rhs),rhsMax =   1.78301817754800E-13  4.73871194451594E-01
 cg2d: Sum(rhs),rhsMax =  -4.90871232550205E-13  4.73746332509421E-01
 cg2d: Sum(rhs),rhsMax =  -2.68340905051900E-13  4.73621425225682E-01
 cg2d: Sum(rhs),rhsMax =   3.04423153352218E-13  4.73497782530997E-01
 cg2d: Sum(rhs),rhsMax =  -1.22873933250389E-13  4.73374295504014E-01
 cg2d: Sum(rhs),rhsMax =   7.20257187225570E-14  4.73250633098462E-01
 cg2d: Sum(rhs),rhsMax =  -6.09234884763055E-14  4.73126755904107E-01
 cg2d: Sum(rhs),rhsMax =   1.49699697082895E-13  4.73002794797745E-01
 cg2d: Sum(rhs),rhsMax =   1.84255388724353E-13  4.72878768467649E-01
 cg2d: Sum(rhs),rhsMax =  -6.36851682500605E-14  4.72754716509368E-01
 cg2d: Sum(rhs),rhsMax =  -5.63299407119189E-14  4.72630691335971E-01
 cg2d: Sum(rhs),rhsMax =  -3.65596442009064E-13  4.72506765727403E-01
 cg2d: Sum(rhs),rhsMax =   2.24903429213441E-13  4.72382995790480E-01
 cg2d: Sum(rhs),rhsMax =   1.72958869448792E-13  4.72259454109761E-01
 cg2d: Sum(rhs),rhsMax =  -4.52832216168986E-14  4.72136219071328E-01
 cg2d: Sum(rhs),rhsMax =  -2.14564477296619E-13  4.72013374954907E-01
 cg2d: Sum(rhs),rhsMax =  -3.06032976737924E-13  4.71886644454674E-01
 cg2d: Sum(rhs),rhsMax =  -1.02311215055551E-12  4.71760406549728E-01
 cg2d: Sum(rhs),rhsMax =  -1.15935039346482E-13  4.71634928520720E-01
 cg2d: Sum(rhs),rhsMax =   2.66869859544272E-14  4.71431208391026E-01
 cg2d: Sum(rhs),rhsMax =  -1.16934240068645E-13  4.71203137905280E-01
 cg2d: Sum(rhs),rhsMax =   2.89407386944163E-13  4.70976250590005E-01
 cg2d: Sum(rhs),rhsMax =  -3.57561202868339E-13  4.70750479407407E-01
 cg2d: Sum(rhs),rhsMax =   4.25770529943748E-14  4.70525781118540E-01
 cg2d: Sum(rhs),rhsMax =  -2.26207941267376E-15  4.70302170272047E-01
 cg2d: Sum(rhs),rhsMax =  -5.49046919040563E-13  4.70079648547014E-01
 cg2d: Sum(rhs),rhsMax =  -1.86267667956486E-13  4.69858189326387E-01
 cg2d: Sum(rhs),rhsMax =  -1.05512820702813E-13  4.69637745069829E-01
 cg2d: Sum(rhs),rhsMax =   2.55670484783366E-13  4.69418237890460E-01
 cg2d: Sum(rhs),rhsMax =  -9.39387456710961E-14  4.69199745800408E-01
 cg2d: Sum(rhs),rhsMax =  -4.17388346107828E-13  4.68981994566152E-01
 cg2d: Sum(rhs),rhsMax =   2.25111596030558E-13  4.68764883161211E-01
 cg2d: Sum(rhs),rhsMax =   3.76504383226006E-13  4.68548280388713E-01
 cg2d: Sum(rhs),rhsMax =  -9.94621052186062E-14  4.68332011645969E-01
 cg2d: Sum(rhs),rhsMax =  -1.79092851659846E-13  4.68115937285641E-01
 cg2d: Sum(rhs),rhsMax =  -5.11812814352197E-14  4.67899929894980E-01
 cg2d: Sum(rhs),rhsMax =  -1.88696280822853E-13  4.67683879119028E-01
 cg2d: Sum(rhs),rhsMax =   1.84074977482851E-13  4.67467552191553E-01
 cg2d: Sum(rhs),rhsMax =   2.65898414397725E-14  4.67250856905868E-01
 cg2d: Sum(rhs),rhsMax =   7.52592432817778E-14  4.67033624104499E-01
 cg2d: Sum(rhs),rhsMax =   2.72643019272323E-13  4.66815813681332E-01
 cg2d: Sum(rhs),rhsMax =  -7.14858727768330E-13  4.66597352464347E-01
 cg2d: Sum(rhs),rhsMax =  -1.45980449950400E-13  4.66378200618455E-01
 cg2d: Sum(rhs),rhsMax =  -1.33615341013638E-13  4.66158304630557E-01
 cg2d: Sum(rhs),rhsMax =   7.02174429711988E-13  4.65937623174202E-01
 cg2d: Sum(rhs),rhsMax =   1.60316204755873E-13  4.65716086985434E-01
 cg2d: Sum(rhs),rhsMax =   6.94583279781114E-14  4.65493640831302E-01
 cg2d: Sum(rhs),rhsMax =  -1.27509114378199E-13  4.65270339597362E-01
 cg2d: Sum(rhs),rhsMax =  -6.85229650798647E-13  4.65046218036849E-01
 cg2d: Sum(rhs),rhsMax =  -3.44085870906952E-13  4.64821249961639E-01
 cg2d: Sum(rhs),rhsMax =  -2.44526621173691E-13  4.64595411364226E-01
 cg2d: Sum(rhs),rhsMax =  -6.75973166330834E-13  4.64368779578510E-01
 cg2d: Sum(rhs),rhsMax =  -7.26321780497585E-13  4.64141431930416E-01
 cg2d: Sum(rhs),rhsMax =  -1.81896164797024E-13  4.63913445952646E-01
 cg2d: Sum(rhs),rhsMax =   5.04166153270091E-13  4.63684897669403E-01
 cg2d: Sum(rhs),rhsMax =  -1.66672231571852E-14  4.63455860552894E-01
 cg2d: Sum(rhs),rhsMax =   5.43259881524705E-13  4.63226406934267E-01
 cg2d: Sum(rhs),rhsMax =  -2.33993380227560E-13  4.62996587932759E-01
 cg2d: Sum(rhs),rhsMax =  -5.63882274207117E-13  4.62766464333861E-01
 cg2d: Sum(rhs),rhsMax =   4.62296867453915E-13  4.62536081668996E-01
 cg2d: Sum(rhs),rhsMax =   9.89347492819093E-14  4.62305475902502E-01
 cg2d: Sum(rhs),rhsMax =   2.71227484915926E-13  4.62074676552784E-01
 cg2d: Sum(rhs),rhsMax =  -4.53026505198295E-13  4.61843701420268E-01
 cg2d: Sum(rhs),rhsMax =   4.43547976125558E-13  4.61612567900030E-01
 cg2d: Sum(rhs),rhsMax =  -4.19844714549811E-13  4.61381269830924E-01
 cg2d: Sum(rhs),rhsMax =  -2.55032106544206E-13  4.61149797417832E-01
 cg2d: Sum(rhs),rhsMax =   4.65114058378902E-13  4.60918141918010E-01
 cg2d: Sum(rhs),rhsMax =   1.16434639707563E-13  4.60686273986875E-01
 cg2d: Sum(rhs),rhsMax =  -7.51051998371111E-13  4.60454164654484E-01
 cg2d: Sum(rhs),rhsMax =  -9.75886038645513E-14  4.60221779388267E-01
 cg2d: Sum(rhs),rhsMax =  -7.31290028532783E-13  4.59989071802909E-01
 cg2d: Sum(rhs),rhsMax =   2.23571161583891E-13  4.59756010862623E-01
 cg2d: Sum(rhs),rhsMax =   5.07330288890273E-13  4.59522560066970E-01
 cg2d: Sum(rhs),rhsMax =   2.96596081028611E-13  4.59288681779564E-01
 cg2d: Sum(rhs),rhsMax =  -1.44703693472081E-13  4.59054339001346E-01
 cg2d: Sum(rhs),rhsMax =  -3.84414722276460E-15  4.58819494718832E-01
 cg2d: Sum(rhs),rhsMax =  -1.47368228731182E-13  4.58584126702564E-01
 cg2d: Sum(rhs),rhsMax =  -3.23657767253849E-13  4.58348204771425E-01
 cg2d: Sum(rhs),rhsMax =  -6.33104679792496E-14  4.58111713022723E-01
 cg2d: Sum(rhs),rhsMax =   1.55306323357252E-13  4.57874049739646E-01
 cg2d: Sum(rhs),rhsMax =  -6.38475383674120E-13  4.57637265377179E-01
 cg2d: Sum(rhs),rhsMax =  -4.55524507003702E-13  4.57398116741387E-01
 cg2d: Sum(rhs),rhsMax =   2.08444372873373E-13  4.57159671038876E-01
 cg2d: Sum(rhs),rhsMax =   6.33645913517000E-13  4.56920759268359E-01
 cg2d: Sum(rhs),rhsMax =  -4.62352378605146E-13  4.56679938764134E-01
 cg2d: Sum(rhs),rhsMax =   8.11156697366755E-14  4.56439859048321E-01
 cg2d: Sum(rhs),rhsMax =  -1.22429844040539E-13  4.56198806952677E-01
 cg2d: Sum(rhs),rhsMax =   2.61138333179645E-13  4.55957447774689E-01
 cg2d: Sum(rhs),rhsMax =  -7.78974107440433E-13  4.55715574635005E-01
 cg2d: Sum(rhs),rhsMax =  -1.15213394380476E-13  4.55473361181913E-01
 cg2d: Sum(rhs),rhsMax =  -5.33323385454310E-14  4.55230787845725E-01
 cg2d: Sum(rhs),rhsMax =   1.51129109227099E-14  4.54987918338408E-01
 cg2d: Sum(rhs),rhsMax =  -3.15844572718049E-13  4.54744783445587E-01
 cg2d: Sum(rhs),rhsMax =  -4.94507212955853E-13  4.54501412765686E-01
 cg2d: Sum(rhs),rhsMax =   2.15383266777280E-14  4.54257848580973E-01
 cg2d: Sum(rhs),rhsMax =   1.86503590349218E-13  4.54014121288560E-01
 cg2d: Sum(rhs),rhsMax =  -2.76445533131664E-14  4.53770262082128E-01
 cg2d: Sum(rhs),rhsMax =  -2.22086238288455E-13  4.53526296738980E-01
 cg2d: Sum(rhs),rhsMax =  -3.09918757324112E-13  4.53282233512472E-01
 cg2d: Sum(rhs),rhsMax =   3.54966056548278E-13  4.53038095941616E-01
 cg2d: Sum(rhs),rhsMax =  -5.41830469380500E-13  4.52793884830777E-01
 cg2d: Sum(rhs),rhsMax =   3.55729334877708E-13  4.52549619159255E-01
 cg2d: Sum(rhs),rhsMax =  -1.23054344491891E-13  4.52305286840151E-01
 cg2d: Sum(rhs),rhsMax =  -2.36061170610924E-13  4.52060885836767E-01
 cg2d: Sum(rhs),rhsMax =   4.47877845921596E-13  4.51816397149178E-01
 cg2d: Sum(rhs),rhsMax =   3.86898846294059E-13  4.51571835589573E-01
 cg2d: Sum(rhs),rhsMax =   3.61100038759332E-14  4.51327161776627E-01
 cg2d: Sum(rhs),rhsMax =   4.11837230984702E-13  4.51082368487743E-01
 cg2d: Sum(rhs),rhsMax =   1.30312427515378E-14  4.50837408278364E-01
 cg2d: Sum(rhs),rhsMax =   8.19483370051444E-14  4.50592205093330E-01
 cg2d: Sum(rhs),rhsMax =   9.15378883803442E-14  4.50346612281413E-01
 cg2d: Sum(rhs),rhsMax =   3.22061821655950E-13  4.50100557916618E-01
 cg2d: Sum(rhs),rhsMax =  -1.64243618705484E-13  4.49854201142848E-01
 cg2d: Sum(rhs),rhsMax =  -1.07372444269060E-13  4.49607547519038E-01
 cg2d: Sum(rhs),rhsMax =   3.38618022510673E-15  4.49360588152815E-01
 cg2d: Sum(rhs),rhsMax =  -3.06699110552699E-14  4.49113324065345E-01
 cg2d: Sum(rhs),rhsMax =  -1.16365250768524E-13  4.48865758949121E-01
 cg2d: Sum(rhs),rhsMax =  -6.93889390390723E-17  4.48617899957024E-01
 cg2d: Sum(rhs),rhsMax =  -1.13950515689965E-13  4.48369754278837E-01
 cg2d: Sum(rhs),rhsMax =   9.55763246324182E-14  4.48121332460812E-01
 cg2d: Sum(rhs),rhsMax =   2.38364883387021E-13  4.47872645520520E-01
 cg2d: Sum(rhs),rhsMax =  -2.53158605190151E-13  4.47623704237996E-01
 cg2d: Sum(rhs),rhsMax =  -3.21603854658292E-13  4.47374523631710E-01
 cg2d: Sum(rhs),rhsMax =  -2.93473578771852E-13  4.47125110645626E-01
 cg2d: Sum(rhs),rhsMax =   3.20979354206941E-13  4.46875448530820E-01
 cg2d: Sum(rhs),rhsMax =   1.62578284168546E-13  4.46625529983398E-01
 cg2d: Sum(rhs),rhsMax =  -1.10883524584438E-13  4.46375279447447E-01
 cg2d: Sum(rhs),rhsMax =  -2.70033995164454E-13  4.46124818564695E-01
 cg2d: Sum(rhs),rhsMax =   3.56284446390021E-13  4.45873446651359E-01
 cg2d: Sum(rhs),rhsMax =  -2.04614103438416E-13  4.45622443223623E-01
 cg2d: Sum(rhs),rhsMax =  -2.46705433859518E-13  4.45370620455699E-01
 cg2d: Sum(rhs),rhsMax =   1.77038939064289E-13  4.45118854669608E-01
 cg2d: Sum(rhs),rhsMax =   4.75175454539567E-14  4.44866188503629E-01
 cg2d: Sum(rhs),rhsMax =  -2.88519208524463E-14  4.44613687384020E-01
 cg2d: Sum(rhs),rhsMax =  -1.58664748006743E-13  4.44360653533525E-01
 cg2d: Sum(rhs),rhsMax =  -4.81822914899510E-13  4.44107355137713E-01
 cg2d: Sum(rhs),rhsMax =   4.93730056838615E-13  4.43853884520957E-01
 cg2d: Sum(rhs),rhsMax =  -2.84980372633470E-13  4.43600074394937E-01
 cg2d: Sum(rhs),rhsMax =  -7.58088036789673E-13  4.43345919156284E-01
 cg2d: Sum(rhs),rhsMax =  -2.25486296301369E-13  4.43091384431134E-01
 cg2d: Sum(rhs),rhsMax =  -5.00072205866786E-13  4.42836419643641E-01
 cg2d: Sum(rhs),rhsMax =   1.01182950906775E-13  4.42581069350667E-01
 cg2d: Sum(rhs),rhsMax =   2.13579154362264E-13  4.42325284431589E-01
 cg2d: Sum(rhs),rhsMax =  -2.51076937018979E-13  4.42069062140814E-01
 cg2d: Sum(rhs),rhsMax =   1.42663658664333E-13  4.41812387137352E-01
 cg2d: Sum(rhs),rhsMax =   2.81025203108243E-13  4.41555249318842E-01
 cg2d: Sum(rhs),rhsMax =  -4.65502636437520E-13  4.41297641619385E-01
 cg2d: Sum(rhs),rhsMax =  -1.15149556556560E-12  4.41039554200064E-01
 cg2d: Sum(rhs),rhsMax =   3.73048814061860E-13  4.40780963185995E-01
 cg2d: Sum(rhs),rhsMax =   3.87523346745411E-13  4.40521871591398E-01
 cg2d: Sum(rhs),rhsMax =   1.01849084721550E-13  4.40262285256138E-01
 cg2d: Sum(rhs),rhsMax =   2.26541008174763E-13  4.40002190162852E-01
 cg2d: Sum(rhs),rhsMax =   2.66148214578266E-13  4.39741586118119E-01
 cg2d: Sum(rhs),rhsMax =   2.30121477429179E-13  4.39480417031597E-01
 cg2d: Sum(rhs),rhsMax =  -2.30995778061072E-13  4.39218297876261E-01
 cg2d: Sum(rhs),rhsMax =   1.58761892521397E-14  4.38955668041990E-01
 cg2d: Sum(rhs),rhsMax =  -2.42028619368284E-13  4.38692552822501E-01
 cg2d: Sum(rhs),rhsMax =  -3.38423733481363E-13  4.38428962176758E-01
 cg2d: Sum(rhs),rhsMax =   1.61093360873110E-13  4.38164906361469E-01
 cg2d: Sum(rhs),rhsMax =   8.73801031531229E-13  4.37900398242130E-01
 cg2d: Sum(rhs),rhsMax =  -1.16892606705221E-13  4.37641542197178E-01
 cg2d: Sum(rhs),rhsMax =  -6.94305724024957E-14  4.37382165038816E-01
 cg2d: Sum(rhs),rhsMax =  -5.65256175200091E-13  4.37122184960423E-01
 cg2d: Sum(rhs),rhsMax =   8.56398285620230E-14  4.36861599264782E-01
 cg2d: Sum(rhs),rhsMax =  -1.55153667691366E-13  4.36600342966198E-01
 cg2d: Sum(rhs),rhsMax =  -5.20611331822352E-13  4.36338383942447E-01
 cg2d: Sum(rhs),rhsMax =  -2.79082312815149E-14  4.36075656416623E-01
 cg2d: Sum(rhs),rhsMax =   1.51739731890643E-13  4.35812091169653E-01
 cg2d: Sum(rhs),rhsMax =  -4.84445816795187E-13  4.35547667735866E-01
 cg2d: Sum(rhs),rhsMax =   2.08583150751451E-13  4.35282366882815E-01
 cg2d: Sum(rhs),rhsMax =   1.13992149053388E-13  4.35016180122222E-01
 cg2d: Sum(rhs),rhsMax =  -4.16999768049209E-13  4.34749089384660E-01
 cg2d: Sum(rhs),rhsMax =   2.45595210834892E-13  4.34481096910333E-01
 cg2d: Sum(rhs),rhsMax =   3.53717055645575E-13  4.34212191285709E-01
 cg2d: Sum(rhs),rhsMax =  -3.67067487516692E-14  4.33942407119535E-01
 cg2d: Sum(rhs),rhsMax =  -1.39499523044151E-13  4.33671734249529E-01
 cg2d: Sum(rhs),rhsMax =   2.32910912778550E-13  4.33400193100848E-01
 cg2d: Sum(rhs),rhsMax =   1.02320929507016E-13  4.33127801361543E-01
 cg2d: Sum(rhs),rhsMax =   1.76803016671556E-13  4.32854596841997E-01
 cg2d: Sum(rhs),rhsMax =   5.53029844141406E-13  4.32580562639976E-01
 cg2d: Sum(rhs),rhsMax =   3.87148646474600E-13  4.32305761664649E-01
 cg2d: Sum(rhs),rhsMax =  -5.44175815520020E-13  4.32030211972431E-01
 cg2d: Sum(rhs),rhsMax =   2.99177349560864E-13  4.31977021366928E-01
 cg2d: Sum(rhs),rhsMax =  -5.97619176367914E-13  4.32035239112325E-01
 cg2d: Sum(rhs),rhsMax =  -1.55500612386561E-13  4.32092759489074E-01
 cg2d: Sum(rhs),rhsMax =   1.80397363713780E-13  4.32149539380422E-01
 cg2d: Sum(rhs),rhsMax =  -1.83714154999848E-13  4.32205530755484E-01
 cg2d: Sum(rhs),rhsMax =  -5.90361093344427E-14  4.32260762240349E-01
 cg2d: Sum(rhs),rhsMax =   4.61089499914635E-13  4.32315128814017E-01
 cg2d: Sum(rhs),rhsMax =   6.30093199838200E-13  4.32368506499189E-01
 cg2d: Sum(rhs),rhsMax =   2.47316056523061E-13  4.32420773724301E-01
 cg2d: Sum(rhs),rhsMax =   2.78180256607641E-13  4.32471831018226E-01
 cg2d: Sum(rhs),rhsMax =  -7.84858289470947E-13  4.32521496777268E-01
 cg2d: Sum(rhs),rhsMax =   2.77014522431784E-13  4.32569733313830E-01
 cg2d: Sum(rhs),rhsMax =  -2.11206052647128E-13  4.32616407997741E-01
 cg2d: Sum(rhs),rhsMax =  -3.20715676238592E-14  4.32661434055738E-01
 cg2d: Sum(rhs),rhsMax =  -7.60613794170695E-13  4.32704744455002E-01
 cg2d: Sum(rhs),rhsMax =   1.61079483085302E-13  4.32746038101670E-01
 cg2d: Sum(rhs),rhsMax =   4.72413774765812E-13  4.32786092995267E-01
 cg2d: Sum(rhs),rhsMax =  -2.38004060904018E-14  4.32823870619245E-01
 cg2d: Sum(rhs),rhsMax =  -2.21905827046953E-13  4.32859740289515E-01
 cg2d: Sum(rhs),rhsMax =  -5.87863091539020E-14  4.32894395539220E-01
 cg2d: Sum(rhs),rhsMax =  -1.10383924223356E-13  4.32926644670739E-01
 cg2d: Sum(rhs),rhsMax =  -4.08381661820556E-13  4.32957947455358E-01
 cg2d: Sum(rhs),rhsMax =  -1.15796261468404E-13  4.32986885679062E-01
 cg2d: Sum(rhs),rhsMax =   1.24941723633754E-13  4.33014698493568E-01
 cg2d: Sum(rhs),rhsMax =   6.71546152020142E-13  4.33041323879688E-01
 cg2d: Sum(rhs),rhsMax =  -3.70647956771109E-13  4.33066710703189E-01
 cg2d: Sum(rhs),rhsMax =   1.15962794922098E-13  4.33091054561514E-01
 cg2d: Sum(rhs),rhsMax =   6.89961976441111E-13  4.33114488849592E-01
 cg2d: Sum(rhs),rhsMax =  -1.05804254246777E-13  4.33142832662531E-01
 cg2d: Sum(rhs),rhsMax =   2.05890859916735E-13  4.33175623005660E-01
 cg2d: Sum(rhs),rhsMax =  -2.56503152051835E-13  4.33207542500902E-01
 cg2d: Sum(rhs),rhsMax =  -2.64066546407093E-13  4.33238596057903E-01
 cg2d: Sum(rhs),rhsMax =  -3.49859030635002E-14  4.33268803199767E-01
 cg2d: Sum(rhs),rhsMax =  -5.52391465902247E-13  4.33298150047770E-01
 cg2d: Sum(rhs),rhsMax =  -6.23778806385644E-13  4.33332150608480E-01
 cg2d: Sum(rhs),rhsMax =  -4.97643593000419E-13  4.33373092228603E-01
 cg2d: Sum(rhs),rhsMax =   4.42479386464356E-13  4.33413294922486E-01
 cg2d: Sum(rhs),rhsMax =  -1.24483756636096E-14  4.33452654764379E-01
 cg2d: Sum(rhs),rhsMax =   3.70939390315073E-13  4.33491158073498E-01
 cg2d: Sum(rhs),rhsMax =  -2.95694024821103E-13  4.33528717255305E-01
 cg2d: Sum(rhs),rhsMax =   1.01460506662931E-13  4.33565250808419E-01
 cg2d: Sum(rhs),rhsMax =   1.05915276549240E-13  4.33600691654969E-01
 cg2d: Sum(rhs),rhsMax =   1.85851334322251E-13  4.33634997628059E-01
 cg2d: Sum(rhs),rhsMax =  -3.44807515872958E-13  4.33668104656368E-01
 cg2d: Sum(rhs),rhsMax =  -5.01959585008649E-14  4.33699983318469E-01
 cg2d: Sum(rhs),rhsMax =  -4.81420459053084E-13  4.33730604183475E-01
 cg2d: Sum(rhs),rhsMax =   4.59632332194815E-13  4.33759614897139E-01
 cg2d: Sum(rhs),rhsMax =   2.90961699178638E-13  4.33786671639271E-01
 cg2d: Sum(rhs),rhsMax =   8.71372418664862E-13  4.33811810019343E-01
 cg2d: Sum(rhs),rhsMax =  -2.69173572320369E-13  4.33835043340779E-01
 cg2d: Sum(rhs),rhsMax =  -8.85402862138562E-15  4.33856442407668E-01
 cg2d: Sum(rhs),rhsMax =  -4.45435355267421E-13  4.33876093238954E-01
 cg2d: Sum(rhs),rhsMax =  -1.69780856040802E-13  4.33894128540123E-01
 cg2d: Sum(rhs),rhsMax =  -3.05311331771918E-13  4.33910689509276E-01
 cg2d: Sum(rhs),rhsMax =  -3.44752004721727E-13  4.33925932510352E-01
 cg2d: Sum(rhs),rhsMax =   1.13326015238613E-13  4.33940061017290E-01
 cg2d: Sum(rhs),rhsMax =   3.25794946576252E-13  4.33953350240358E-01
 cg2d: Sum(rhs),rhsMax =   2.85049761572509E-13  4.33965984328121E-01
 cg2d: Sum(rhs),rhsMax =  -7.39547312278432E-14  4.33978159171551E-01
 cg2d: Sum(rhs),rhsMax =  -3.61238816637410E-14  4.33990061431046E-01
 cg2d: Sum(rhs),rhsMax =  -5.57567880754561E-13  4.34001865133376E-01
 cg2d: Sum(rhs),rhsMax =   2.42014741580476E-13  4.34013765324343E-01
 cg2d: Sum(rhs),rhsMax =   5.35432809201097E-13  4.34025867866229E-01
 cg2d: Sum(rhs),rhsMax =   5.85129167340881E-13  4.33929832208392E-01
 cg2d: Sum(rhs),rhsMax =  -2.48384646184263E-13  4.33804854805978E-01
 cg2d: Sum(rhs),rhsMax =  -9.28146448586631E-14  4.33681630684630E-01
 cg2d: Sum(rhs),rhsMax =  -8.91786644530157E-14  4.33560092932007E-01
 cg2d: Sum(rhs),rhsMax =   8.60977955596809E-14  4.33440353109314E-01
 cg2d: Sum(rhs),rhsMax =   3.35037553256257E-13  4.33322500984765E-01
 cg2d: Sum(rhs),rhsMax =   1.13520304267922E-14  4.33206587924923E-01
 cg2d: Sum(rhs),rhsMax =   2.18755569214579E-13  4.33092592186524E-01
 cg2d: Sum(rhs),rhsMax =   1.64437907734793E-13  4.32980455440976E-01
 cg2d: Sum(rhs),rhsMax =   2.87284085409567E-13  4.32870059892777E-01
 cg2d: Sum(rhs),rhsMax =  -1.28189125980782E-13  4.32761198525660E-01
 cg2d: Sum(rhs),rhsMax =  -3.51010887023051E-13  4.32653667866192E-01
 cg2d: Sum(rhs),rhsMax =  -2.25167107181790E-13  4.32547143212467E-01
 cg2d: Sum(rhs),rhsMax =  -7.17273462846890E-13  4.32441386753305E-01
 cg2d: Sum(rhs),rhsMax =  -2.86978774077795E-13  4.32284808276162E-01
 cg2d: Sum(rhs),rhsMax =   3.93574062229618E-14  4.32052249656157E-01
 cg2d: Sum(rhs),rhsMax =   1.53349555276350E-13  4.31819987661143E-01
 cg2d: Sum(rhs),rhsMax =   2.86159984597134E-14  4.31589166695888E-01
 cg2d: Sum(rhs),rhsMax =   4.51541581902859E-13  4.31358932929203E-01
 cg2d: Sum(rhs),rhsMax =  -1.61939905929387E-13  4.31129248199891E-01
 cg2d: Sum(rhs),rhsMax =   7.36355421082635E-14  4.30899919142714E-01
 cg2d: Sum(rhs),rhsMax =   3.01120239853958E-13  4.30670803887233E-01
 cg2d: Sum(rhs),rhsMax =  -3.90937282546133E-14  4.30441733467881E-01
 cg2d: Sum(rhs),rhsMax =  -6.94444501903035E-14  4.30212594088462E-01
 cg2d: Sum(rhs),rhsMax =   2.24681384608516E-14  4.29983262424633E-01
 cg2d: Sum(rhs),rhsMax =   1.40165656858926E-15  4.29753641322465E-01
 cg2d: Sum(rhs),rhsMax =   2.63414290380126E-13  4.29523711320949E-01
 cg2d: Sum(rhs),rhsMax =   2.52173282255796E-13  4.29293272864372E-01
 cg2d: Sum(rhs),rhsMax =   3.01147995429574E-14  4.29062466485482E-01
 cg2d: Sum(rhs),rhsMax =   4.44991266057571E-13  4.28831331711884E-01
 cg2d: Sum(rhs),rhsMax =   1.51142987014907E-13  4.28599939574749E-01
 cg2d: Sum(rhs),rhsMax =  -1.31172850359462E-13  4.28368393210233E-01
 cg2d: Sum(rhs),rhsMax =  -7.36910532594948E-15  4.28136799196322E-01
 cg2d: Sum(rhs),rhsMax =   3.71369601737115E-13  4.27905319299928E-01
 cg2d: Sum(rhs),rhsMax =  -6.71129818385907E-14  4.27674097610692E-01
 cg2d: Sum(rhs),rhsMax =  -2.90323320939478E-14  4.27443330898385E-01
 cg2d: Sum(rhs),rhsMax =  -9.48546796664118E-14  4.27213176585409E-01
 cg2d: Sum(rhs),rhsMax =  -2.03212446869827E-13  4.26983826954307E-01
 cg2d: Sum(rhs),rhsMax =  -7.13012981989891E-13  4.26755442894550E-01
 cg2d: Sum(rhs),rhsMax =  -2.93903790193895E-13  4.26528204762997E-01
 cg2d: Sum(rhs),rhsMax =  -5.33406652181156E-13  4.26302394384098E-01
 cg2d: Sum(rhs),rhsMax =  -8.88178419700125E-15  4.26078177188299E-01
 cg2d: Sum(rhs),rhsMax =   9.72139035937403E-14  4.25849821125929E-01
 cg2d: Sum(rhs),rhsMax =  -6.19504447740837E-14  4.25622760523209E-01
 cg2d: Sum(rhs),rhsMax =   3.32650573753313E-14  4.25396934111611E-01
 cg2d: Sum(rhs),rhsMax =  -3.21978554929103E-13  4.25172931191026E-01
 cg2d: Sum(rhs),rhsMax =   1.89709359332824E-14  4.24950772310109E-01
 cg2d: Sum(rhs),rhsMax =  -2.09443573595536E-13  4.24730399670455E-01
 cg2d: Sum(rhs),rhsMax =   5.29548627170584E-13  4.24511722681411E-01
 cg2d: Sum(rhs),rhsMax =   4.31030211522909E-13  4.24295484581157E-01
 cg2d: Sum(rhs),rhsMax =  -2.21600515715181E-13  4.24080674705181E-01
 cg2d: Sum(rhs),rhsMax =  -1.55236934418213E-13  4.23867100751376E-01
 cg2d: Sum(rhs),rhsMax =   2.50771625687207E-14  4.23654582175773E-01
 cg2d: Sum(rhs),rhsMax =   5.28049826087340E-14  4.23442945411964E-01
 cg2d: Sum(rhs),rhsMax =  -5.16545139994662E-13  4.23231835875781E-01
 cg2d: Sum(rhs),rhsMax =  -6.25333118620119E-14  4.23021054706083E-01
 cg2d: Sum(rhs),rhsMax =  -1.39430134105112E-13  4.22810373982933E-01
 cg2d: Sum(rhs),rhsMax =  -3.57908147563535E-14  4.22599576704898E-01
 cg2d: Sum(rhs),rhsMax =  -3.75061093293994E-13  4.22388418373991E-01
 cg2d: Sum(rhs),rhsMax =  -1.84532944480509E-13  4.22176737876859E-01
 cg2d: Sum(rhs),rhsMax =  -7.13235026594816E-13  4.21964322336272E-01
 cg2d: Sum(rhs),rhsMax =   2.63802868438745E-13  4.21751052010136E-01
 cg2d: Sum(rhs),rhsMax =   5.91332538490974E-14  4.21536816667257E-01
 cg2d: Sum(rhs),rhsMax =  -2.51840215348409E-13  4.21323192096523E-01
 cg2d: Sum(rhs),rhsMax =   6.38378239159465E-15  4.21108492371588E-01
 cg2d: Sum(rhs),rhsMax =   7.18869408444789E-15  4.20892694366456E-01
 cg2d: Sum(rhs),rhsMax =  -1.99937288947183E-13  4.20675822005794E-01
 cg2d: Sum(rhs),rhsMax =   3.10793057956005E-13  4.20457953206262E-01
 cg2d: Sum(rhs),rhsMax =  -3.32581184814273E-13  4.20239195328580E-01
 cg2d: Sum(rhs),rhsMax =  -5.58442181386454E-13  4.20019694336229E-01
 cg2d: Sum(rhs),rhsMax =   5.61911628338407E-14  4.19799625467732E-01
 cg2d: Sum(rhs),rhsMax =   2.81344392227822E-13  4.19579200677916E-01
 cg2d: Sum(rhs),rhsMax =   1.14158682507082E-13  4.19358643005616E-01
 cg2d: Sum(rhs),rhsMax =   2.21780926956683E-13  4.19138193735021E-01
 cg2d: Sum(rhs),rhsMax =   1.05859765398009E-13  4.18922754187038E-01
 cg2d: Sum(rhs),rhsMax =  -3.41879302645509E-13  4.18707924779862E-01
 cg2d: Sum(rhs),rhsMax =  -6.73211486557079E-14  4.18493781047667E-01
 cg2d: Sum(rhs),rhsMax =  -5.51406142967892E-13  4.18280549933807E-01
 cg2d: Sum(rhs),rhsMax =   4.34888236533482E-13  4.18081801217909E-01
 cg2d: Sum(rhs),rhsMax =   4.76368944291039E-13  4.17965512860876E-01
 cg2d: Sum(rhs),rhsMax =  -2.69798072771721E-13  4.17849202737111E-01
 cg2d: Sum(rhs),rhsMax =   1.88238313825195E-13  4.17743402410501E-01
 cg2d: Sum(rhs),rhsMax =   7.42184091961917E-14  4.17645759047002E-01
 cg2d: Sum(rhs),rhsMax =   3.97834543086617E-13  4.17548704394090E-01
 cg2d: Sum(rhs),rhsMax =   2.22336038468995E-13  4.17452117526232E-01
 cg2d: Sum(rhs),rhsMax =   2.04544714499377E-13  4.17356114812301E-01
 cg2d: Sum(rhs),rhsMax =  -2.20837237385751E-13  4.17260717113395E-01
 cg2d: Sum(rhs),rhsMax =   1.59233737306863E-13  4.17165939969272E-01
 cg2d: Sum(rhs),rhsMax =   3.70536934468646E-15  4.17071781484390E-01
 cg2d: Sum(rhs),rhsMax =   1.94191884794748E-13  4.16978240768737E-01
 cg2d: Sum(rhs),rhsMax =  -1.15726872529365E-13  4.16885306125628E-01
 cg2d: Sum(rhs),rhsMax =   2.79998246810464E-13  4.16793161479308E-01
 cg2d: Sum(rhs),rhsMax =  -3.27252114296073E-13  4.16701095063762E-01
 cg2d: Sum(rhs),rhsMax =   1.10453313162395E-13  4.16610111382729E-01
 cg2d: Sum(rhs),rhsMax =   2.43610687178375E-13  4.16519193644865E-01
 cg2d: Sum(rhs),rhsMax =  -8.40022496007009E-14  4.16428781658672E-01
 cg2d: Sum(rhs),rhsMax =  -7.67441665772139E-14  4.16339108776631E-01
 cg2d: Sum(rhs),rhsMax =  -2.22044604925031E-13  4.16249447752967E-01
 cg2d: Sum(rhs),rhsMax =  -6.09234884763055E-15  4.16160255514921E-01
 cg2d: Sum(rhs),rhsMax =  -5.96939164765331E-13  4.16071333697669E-01
 cg2d: Sum(rhs),rhsMax =   1.15810139256212E-13  4.15982648126854E-01
 cg2d: Sum(rhs),rhsMax =   3.54230533794464E-13  4.15894158224461E-01
 cg2d: Sum(rhs),rhsMax =   3.49428819212960E-13  4.15805856640126E-01
 cg2d: Sum(rhs),rhsMax =   1.11327613794288E-13  4.15717705095435E-01
 cg2d: Sum(rhs),rhsMax =  -6.26304563766666E-14  4.15629673621381E-01
 cg2d: Sum(rhs),rhsMax =  -1.50462975412324E-13  4.15541748357533E-01
 cg2d: Sum(rhs),rhsMax =   5.46784839627890E-14  4.15453900884748E-01
 cg2d: Sum(rhs),rhsMax =   3.46403461470857E-13  4.15366129353283E-01
 cg2d: Sum(rhs),rhsMax =   3.73437392120479E-13  4.15278425075302E-01
 cg2d: Sum(rhs),rhsMax =  -4.11476408501699E-13  4.15190741149534E-01
 cg2d: Sum(rhs),rhsMax =   4.06188971346921E-13  4.15103131652624E-01
 cg2d: Sum(rhs),rhsMax =  -2.86368151414251E-13  4.15015603142366E-01
 cg2d: Sum(rhs),rhsMax =  -2.03531635989407E-13  4.14928155083108E-01
 cg2d: Sum(rhs),rhsMax =   4.22564760960142E-13  4.14840814403409E-01
 cg2d: Sum(rhs),rhsMax =  -7.07905956076615E-14  4.14753599538382E-01
 cg2d: Sum(rhs),rhsMax =  -5.83935677589409E-13  4.14666027084320E-01
 cg2d: Sum(rhs),rhsMax =   1.23373533611471E-14  4.14578633363972E-01
 cg2d: Sum(rhs),rhsMax =  -9.84073933452123E-14  4.14491447313762E-01
 cg2d: Sum(rhs),rhsMax =  -6.36449226654179E-13  4.14404483122024E-01
 cg2d: Sum(rhs),rhsMax =  -1.46757606067638E-13  4.14317761214814E-01
 cg2d: Sum(rhs),rhsMax =  -8.26699819711507E-14  4.14231307173029E-01
 cg2d: Sum(rhs),rhsMax =  -4.20344314910892E-13  4.14145136831888E-01
 cg2d: Sum(rhs),rhsMax =   8.95256091482111E-14  4.14059261636819E-01
 cg2d: Sum(rhs),rhsMax =  -7.15261183614757E-14  4.13973690354367E-01
 cg2d: Sum(rhs),rhsMax =  -1.25330301692372E-13  4.13888430271176E-01
 cg2d: Sum(rhs),rhsMax =  -9.13574771388426E-14  4.13803479614466E-01
 cg2d: Sum(rhs),rhsMax =  -6.22321638665824E-13  4.13717373790215E-01
 cg2d: Sum(rhs),rhsMax =  -2.78929657149263E-13  4.13631538300037E-01
 cg2d: Sum(rhs),rhsMax =  -3.79890563451113E-13  4.13546014235215E-01
 cg2d: Sum(rhs),rhsMax =   1.85851334322251E-13  4.13460766780837E-01
 cg2d: Sum(rhs),rhsMax =  -1.09898201650083E-13  4.13375778884449E-01
 cg2d: Sum(rhs),rhsMax =  -4.34680069716364E-13  4.13291052058000E-01
 cg2d: Sum(rhs),rhsMax =  -1.83492110394923E-13  4.13206549562244E-01
 cg2d: Sum(rhs),rhsMax =   1.32491240201205E-13  4.13122268200113E-01
 cg2d: Sum(rhs),rhsMax =   5.59066681837805E-13  4.13038181634738E-01
 cg2d: Sum(rhs),rhsMax =   1.13450915328883E-13  4.12954261659532E-01
 cg2d: Sum(rhs),rhsMax =  -1.50629508866018E-13  4.12870497549395E-01
 cg2d: Sum(rhs),rhsMax =  -1.51115231439292E-13  4.12786877227227E-01
 cg2d: Sum(rhs),rhsMax =  -2.67383337693161E-13  4.12703380447105E-01
 cg2d: Sum(rhs),rhsMax =   1.63924429585904E-13  4.12620003023921E-01
 cg2d: Sum(rhs),rhsMax =   3.64847041467442E-13  4.12536726713222E-01
 cg2d: Sum(rhs),rhsMax =   1.71668235182665E-14  4.12453557156634E-01
 cg2d: Sum(rhs),rhsMax =  -1.67088565206086E-14  4.12370490448390E-01
 cg2d: Sum(rhs),rhsMax =  -2.86978774077795E-13  4.12287531985108E-01
 cg2d: Sum(rhs),rhsMax =  -6.40057451484211E-13  4.12204688886018E-01
 cg2d: Sum(rhs),rhsMax =   3.51288442779207E-13  4.12121977300553E-01
 cg2d: Sum(rhs),rhsMax =  -3.56131790724135E-13  4.12039409236503E-01
 cg2d: Sum(rhs),rhsMax =  -1.55556123537792E-13  4.11957004992163E-01
 cg2d: Sum(rhs),rhsMax =  -4.56953919147907E-13  4.11874775866910E-01
 cg2d: Sum(rhs),rhsMax =  -3.03909675203329E-13  4.11792662790716E-01
 cg2d: Sum(rhs),rhsMax =  -4.17416101683443E-13  4.11710697934643E-01
 cg2d: Sum(rhs),rhsMax =  -2.77847189700253E-13  4.11628910615531E-01
 cg2d: Sum(rhs),rhsMax =  -6.06834027472303E-13  4.11547404070628E-01
 cg2d: Sum(rhs),rhsMax =   3.21992432716911E-13  4.11466159418661E-01
 cg2d: Sum(rhs),rhsMax =  -5.92095816820404E-13  4.11385242717242E-01
 cg2d: Sum(rhs),rhsMax =   1.61218260963381E-13  4.11304680846954E-01
 cg2d: Sum(rhs),rhsMax =  -2.57016630200724E-13  4.11224522628643E-01
 cg2d: Sum(rhs),rhsMax =   4.05744882137071E-13  4.11144783884061E-01
 cg2d: Sum(rhs),rhsMax =   1.48464573967999E-13  4.11065492478426E-01
 cg2d: Sum(rhs),rhsMax =  -2.60208521396521E-13  4.10986670930437E-01
 cg2d: Sum(rhs),rhsMax =  -3.79224429636338E-13  4.10908324851730E-01
 cg2d: Sum(rhs),rhsMax =  -2.83176260218454E-13  4.10830459747221E-01
 cg2d: Sum(rhs),rhsMax =   2.92724178230230E-13  4.10753068244487E-01
 cg2d: Sum(rhs),rhsMax =  -3.32095462241000E-13  4.10676139813081E-01
 cg2d: Sum(rhs),rhsMax =  -7.72715225139109E-14  4.10599612719963E-01
 cg2d: Sum(rhs),rhsMax =   2.42500464153750E-13  4.10523443396484E-01
 cg2d: Sum(rhs),rhsMax =  -4.55524507003702E-13  4.10447452056700E-01
 cg2d: Sum(rhs),rhsMax =  -3.93921006924813E-13  4.10371604926700E-01
 cg2d: Sum(rhs),rhsMax =   8.72774075233451E-14  4.10295866305508E-01
 cg2d: Sum(rhs),rhsMax =  -7.28625493273682E-13  4.10220202425221E-01
 cg2d: Sum(rhs),rhsMax =  -5.71487301925799E-14  4.10144585675231E-01
 cg2d: Sum(rhs),rhsMax =   2.61984878235921E-13  4.10068975898315E-01
 cg2d: Sum(rhs),rhsMax =   7.27556903612481E-13  4.09993274186429E-01
 cg2d: Sum(rhs),rhsMax =  -3.71230823859037E-14  4.09917552801790E-01
 cg2d: Sum(rhs),rhsMax =   1.32047150991355E-13  4.09841060416391E-01
 cg2d: Sum(rhs),rhsMax =  -6.72656375044767E-14  4.09764480159233E-01
 cg2d: Sum(rhs),rhsMax =  -1.99618099827603E-13  4.09687467784763E-01
 cg2d: Sum(rhs),rhsMax =  -5.90916204856740E-14  4.09609969422497E-01
 cg2d: Sum(rhs),rhsMax =   3.90146248641088E-13  4.09531993303992E-01
 cg2d: Sum(rhs),rhsMax =   1.80411241501588E-16  4.09453544407357E-01
 cg2d: Sum(rhs),rhsMax =  -5.77315972805081E-13  4.09374630349201E-01
 cg2d: Sum(rhs),rhsMax =   5.60898549828437E-13  4.09295213860660E-01
 cg2d: Sum(rhs),rhsMax =  -2.60444443789254E-13  4.09215376792736E-01
 cg2d: Sum(rhs),rhsMax =   3.66734420609305E-13  4.09135157528484E-01
 cg2d: Sum(rhs),rhsMax =   9.32864896441288E-14  4.09221056737962E-01
 cg2d: Sum(rhs),rhsMax =   6.43693431889858E-13  4.09472859345327E-01
 cg2d: Sum(rhs),rhsMax =  -1.98299709985861E-13  4.09724204043456E-01
 cg2d: Sum(rhs),rhsMax =   8.10601585854442E-14  4.09975042473910E-01
 cg2d: Sum(rhs),rhsMax =  -3.20132809150664E-13  4.10225368136781E-01
 cg2d: Sum(rhs),rhsMax =   5.83005865806285E-14  4.10475189104029E-01
 cg2d: Sum(rhs),rhsMax =  -3.75866004986847E-13  4.10724546692080E-01
 cg2d: Sum(rhs),rhsMax =  -6.55614451616771E-13  4.10973504262536E-01
 cg2d: Sum(rhs),rhsMax =   1.61107238660918E-13  4.11222170807113E-01
 cg2d: Sum(rhs),rhsMax =   3.79002385031413E-14  4.11470648192262E-01
 cg2d: Sum(rhs),rhsMax =   1.27758914558740E-13  4.11719058754791E-01
 cg2d: Sum(rhs),rhsMax =  -4.84848272641614E-13  4.11967525922657E-01
 cg2d: Sum(rhs),rhsMax =  -4.26741975090295E-13  4.12216111985145E-01
 cg2d: Sum(rhs),rhsMax =  -7.80653319765179E-13  4.12465005453931E-01
 cg2d: Sum(rhs),rhsMax =  -4.43325931520633E-13  4.12714350532975E-01
 cg2d: Sum(rhs),rhsMax =   7.09987624247788E-13  4.12964210109293E-01
 cg2d: Sum(rhs),rhsMax =   1.42941214420489E-14  4.13214555837567E-01
 cg2d: Sum(rhs),rhsMax =   3.88578058618805E-14  4.13465577356233E-01
 cg2d: Sum(rhs),rhsMax =  -2.91294766086025E-14  4.13717445993456E-01
 cg2d: Sum(rhs),rhsMax =   3.44085870906952E-13  4.13970303729976E-01
 cg2d: Sum(rhs),rhsMax =   9.89486270697171E-14  4.14224262823306E-01
 cg2d: Sum(rhs),rhsMax =  -1.66477942542542E-13  4.14479401168237E-01
 cg2d: Sum(rhs),rhsMax =   2.43888242934531E-13  4.14735765582095E-01
 cg2d: Sum(rhs),rhsMax =  -2.38795094809063E-13  4.14993623816333E-01
 cg2d: Sum(rhs),rhsMax =  -2.18755569214579E-13  4.15252652362049E-01
 cg2d: Sum(rhs),rhsMax =   3.28292948381659E-13  4.15512767540405E-01
 cg2d: Sum(rhs),rhsMax =  -3.14234749332343E-13  4.15773875807012E-01
 cg2d: Sum(rhs),rhsMax =   1.11063935825939E-13  4.16035797190629E-01
 cg2d: Sum(rhs),rhsMax =   4.24910107099663E-13  4.16298371974394E-01
 cg2d: Sum(rhs),rhsMax =  -8.86374307285109E-14  4.16561403593913E-01
 cg2d: Sum(rhs),rhsMax =  -2.48939757696576E-13  4.16824675695241E-01
 cg2d: Sum(rhs),rhsMax =   3.61405350091104E-13  4.17088003898379E-01
 cg2d: Sum(rhs),rhsMax =   1.27495236590391E-13  4.17351154192894E-01
 cg2d: Sum(rhs),rhsMax =   3.07934233667595E-13  4.17613922952595E-01
 cg2d: Sum(rhs),rhsMax =  -6.93473056756488E-13  4.17875569156676E-01
 cg2d: Sum(rhs),rhsMax =  -1.09343090137770E-13  4.18137733996911E-01
 cg2d: Sum(rhs),rhsMax =   1.74721348500384E-13  4.18397920746150E-01
 cg2d: Sum(rhs),rhsMax =  -5.06150676926609E-13  4.18656816949902E-01
 cg2d: Sum(rhs),rhsMax =  -3.29500315920939E-13  4.18915765661303E-01
 cg2d: Sum(rhs),rhsMax =  -1.83783543938887E-13  4.19171963035802E-01
 cg2d: Sum(rhs),rhsMax =   5.92442761515599E-13  4.19428254622675E-01
 cg2d: Sum(rhs),rhsMax =  -5.10230746542106E-13  4.19681801225595E-01
 cg2d: Sum(rhs),rhsMax =  -7.43918815437894E-13  4.19934878065642E-01
 cg2d: Sum(rhs),rhsMax =   3.39783756686529E-13  4.20186246593953E-01
 cg2d: Sum(rhs),rhsMax =   1.73194791841524E-13  4.20436374942228E-01
 cg2d: Sum(rhs),rhsMax =  -1.74485426107651E-13  4.20685365629968E-01
 cg2d: Sum(rhs),rhsMax =   4.69263516933438E-13  4.20933385429632E-01
 cg2d: Sum(rhs),rhsMax =  -1.74860126378462E-15  4.21180631361617E-01
 cg2d: Sum(rhs),rhsMax =  -1.26745836048769E-13  4.21427312483514E-01
 cg2d: Sum(rhs),rhsMax =  -1.47867829092263E-13  4.21673649930586E-01
 cg2d: Sum(rhs),rhsMax =   6.93334278878410E-14  4.21919901245538E-01
 cg2d: Sum(rhs),rhsMax =   2.30468422124375E-13  4.22166290456803E-01
 cg2d: Sum(rhs),rhsMax =  -6.60568821864160E-13  4.22413042021363E-01
 cg2d: Sum(rhs),rhsMax =   1.46688217128599E-14  4.22660379079369E-01
 cg2d: Sum(rhs),rhsMax =  -3.32844862782622E-13  4.22908502214219E-01
 cg2d: Sum(rhs),rhsMax =   1.14103171355850E-13  4.23157610377398E-01
 cg2d: Sum(rhs),rhsMax =   2.04447569984723E-13  4.23407820270877E-01
 cg2d: Sum(rhs),rhsMax =  -1.47715173426377E-13  4.23659272565460E-01
 cg2d: Sum(rhs),rhsMax =  -8.61630211623776E-13  4.23912031615633E-01
 cg2d: Sum(rhs),rhsMax =  -5.77038417048925E-14  4.24166131899395E-01
 cg2d: Sum(rhs),rhsMax =   4.53331816530067E-13  4.24421530823609E-01
 cg2d: Sum(rhs),rhsMax =   5.73999181519014E-13  4.24678138715021E-01
 cg2d: Sum(rhs),rhsMax =   1.98049909805320E-13  4.24935886688688E-01
 cg2d: Sum(rhs),rhsMax =   1.07941433569181E-13  4.25194659805882E-01
 cg2d: Sum(rhs),rhsMax =   6.65870136806745E-13  4.25454317222970E-01
 cg2d: Sum(rhs),rhsMax =  -1.12965192755610E-13  4.25714694776268E-01
 cg2d: Sum(rhs),rhsMax =  -2.92321722383804E-13  4.25975613173286E-01
 cg2d: Sum(rhs),rhsMax =   6.77097267143267E-14  4.26236860724903E-01
 cg2d: Sum(rhs),rhsMax =  -5.44564393578639E-14  4.26498213582323E-01
 cg2d: Sum(rhs),rhsMax =  -1.47826195728840E-13  4.26759335833625E-01
 cg2d: Sum(rhs),rhsMax =  -1.23304144672431E-13  4.27019976335758E-01
 cg2d: Sum(rhs),rhsMax =   1.33504318711175E-13  4.27279892159118E-01
 cg2d: Sum(rhs),rhsMax =  -9.27452559196240E-14  4.27538846436624E-01
 cg2d: Sum(rhs),rhsMax =   2.97817326355698E-14  4.27796642480469E-01
 cg2d: Sum(rhs),rhsMax =  -3.71078168193151E-13  4.28053120111607E-01
 cg2d: Sum(rhs),rhsMax =  -1.18821619210507E-13  4.28308134025018E-01
 cg2d: Sum(rhs),rhsMax =  -3.29417049194092E-13  4.28561593050234E-01
 cg2d: Sum(rhs),rhsMax =   4.27019530846451E-13  4.28813399467787E-01
 cg2d: Sum(rhs),rhsMax =  -2.09415818019920E-13  4.29063511601310E-01
 cg2d: Sum(rhs),rhsMax =   2.99718583285369E-13  4.29311953286149E-01
 cg2d: Sum(rhs),rhsMax =   4.77395900588817E-15  4.29558768120398E-01
 cg2d: Sum(rhs),rhsMax =   7.96807064773475E-13  4.29804042863614E-01
 cg2d: Sum(rhs),rhsMax =  -1.54459778300975E-14  4.30047921842746E-01
 cg2d: Sum(rhs),rhsMax =  -1.65437108456956E-13  4.30290524797923E-01
 cg2d: Sum(rhs),rhsMax =   3.01661473578463E-13  4.30532048233062E-01
 cg2d: Sum(rhs),rhsMax =   7.55950857467269E-13  4.30772698763686E-01
 cg2d: Sum(rhs),rhsMax =  -1.16101572800176E-13  4.31012724356956E-01
 cg2d: Sum(rhs),rhsMax =   3.04964387076723E-13  4.31252380039299E-01
 cg2d: Sum(rhs),rhsMax =  -3.61599639120413E-13  4.31491923376084E-01
 cg2d: Sum(rhs),rhsMax =   1.99562588676372E-13  4.31731569439212E-01
 cg2d: Sum(rhs),rhsMax =   3.15386605720391E-13  4.31971569531377E-01
 cg2d: Sum(rhs),rhsMax =  -5.10078090876220E-13  4.32212148532765E-01
 cg2d: Sum(rhs),rhsMax =  -5.10202990966491E-13  4.32453489777329E-01
 cg2d: Sum(rhs),rhsMax =  -2.17867390794879E-13  4.32695773970815E-01
 cg2d: Sum(rhs),rhsMax =   1.11591291762636E-13  4.32939969983680E-01
 cg2d: Sum(rhs),rhsMax =   1.91666127413725E-13  4.33185762259589E-01
 cg2d: Sum(rhs),rhsMax =   7.03048730343880E-14  4.33432608947343E-01
 cg2d: Sum(rhs),rhsMax =  -2.61513033450456E-13  4.33680463719297E-01
 cg2d: Sum(rhs),rhsMax =  -5.58789126081649E-13  4.33929268670757E-01
 cg2d: Sum(rhs),rhsMax =   7.95058463509690E-14  4.34178930089600E-01
 cg2d: Sum(rhs),rhsMax =  -7.72631958412262E-13  4.34429308231373E-01
 cg2d: Sum(rhs),rhsMax =   6.10900219299992E-14  4.34680241455775E-01
 cg2d: Sum(rhs),rhsMax =  -2.11969330976558E-13  4.34931395344234E-01
 cg2d: Sum(rhs),rhsMax =  -2.62609378687273E-13  4.35182698938435E-01
 cg2d: Sum(rhs),rhsMax =  -3.19758108879853E-13  4.35433931151709E-01
 cg2d: Sum(rhs),rhsMax =  -2.04461447772530E-13  4.35684855410608E-01
 cg2d: Sum(rhs),rhsMax =  -3.60683705125098E-14  4.35935247872119E-01
 cg2d: Sum(rhs),rhsMax =   8.99419427824455E-14  4.36184821575600E-01
 cg2d: Sum(rhs),rhsMax =  -1.55431223447522E-15  4.36427031162886E-01
 cg2d: Sum(rhs),rhsMax =  -1.76220149583628E-13  4.36668022042781E-01
 cg2d: Sum(rhs),rhsMax =  -1.62564406380739E-13  4.36907684334229E-01
 cg2d: Sum(rhs),rhsMax =  -1.38306033292679E-13  4.37145872817877E-01
 cg2d: Sum(rhs),rhsMax =  -2.62040389387153E-13  4.37382520493302E-01
 cg2d: Sum(rhs),rhsMax =  -3.73798214603482E-13  4.37617539939536E-01
 cg2d: Sum(rhs),rhsMax =  -2.11095030344666E-13  4.37850896967374E-01
 cg2d: Sum(rhs),rhsMax =   2.84314238818695E-13  4.38082577739938E-01
 cg2d: Sum(rhs),rhsMax =   1.87627691161651E-14  4.38312607921759E-01
 cg2d: Sum(rhs),rhsMax =  -2.04919414770188E-13  4.38541053813923E-01
 cg2d: Sum(rhs),rhsMax =   1.98521754590786E-13  4.38767991367421E-01
 cg2d: Sum(rhs),rhsMax =   4.92189622391948E-13  4.38993564846011E-01
 cg2d: Sum(rhs),rhsMax =  -2.13287720818300E-13  4.39217901002465E-01
 cg2d: Sum(rhs),rhsMax =  -2.49605891511351E-13  4.39438105122298E-01
 cg2d: Sum(rhs),rhsMax =  -7.25391968714462E-14  4.39657369719307E-01
 cg2d: Sum(rhs),rhsMax =   2.81052958683858E-13  4.39876012521000E-01
 cg2d: Sum(rhs),rhsMax =   3.27474158900998E-13  4.40094249711711E-01
 cg2d: Sum(rhs),rhsMax =   1.56888391167342E-13  4.40312341481006E-01
 cg2d: Sum(rhs),rhsMax =  -2.17700857341185E-13  4.40530546001117E-01
 cg2d: Sum(rhs),rhsMax =   1.49116829994966E-13  4.40749094184672E-01
